PCCDB-ID:  66316 
public computational chemistry database (PCCDB) project, http://pccdb.org 
 
 27 28  0  0  0  0  0  0  0  0999 V2000 
    4.6608   -0.3256    0.9030 C   0  0  0  0  0  0  0  0  0  0  0  0 
    3.9571   -1.6784    0.8370 C   0  0  0  0  0  0  0  0  0  0  0  0 
    0.4358   -2.8892    0.0453 C   0  0  0  0  0  0  0  0  0  0  0  0 
   -1.7866   -3.8182   -0.4471 C   0  0  0  0  0  0  0  0  0  0  0  0 
    1.7454   -2.8667    0.3692 C   0  0  0  0  0  0  0  0  0  0  0  0 
   -2.7095   -4.8629   -0.6069 C   0  0  0  0  0  0  0  0  0  0  0  0 
    0.0080   -5.3750    0.1117 C   0  0  0  0  0  0  0  0  0  0  0  0 
   -1.9720   -8.3589   -0.1735 C   0  0  0  0  0  0  0  0  0  0  0  0 
   -0.4438   -4.0434   -0.0951 C   0  0  0  0  0  0  0  0  0  0  0  0 
    2.4806   -1.5821    0.4637 C   0  0  0  0  0  0  0  0  0  0  0  0 
   -2.2372   -6.1435   -0.3986 C   0  0  0  0  0  0  0  0  0  0  0  0 
   -0.9069   -6.3872   -0.0475 C   0  0  0  0  0  0  0  0  0  0  0  0 
    1.9427   -0.5012    0.2567 O   0  0  0  0  0  0  0  0  0  0  0  0 
   -2.9184   -7.3269   -0.4874 O   0  0  0  0  0  0  0  0  0  0  0  0 
   -0.7105   -7.7393    0.0968 O   0  0  0  0  0  0  0  0  0  0  0  0 
    5.7138   -0.4485    1.1778 H   0  0  0  0  0  0  0  0  0  0  0  0 
    4.1830    0.3269    1.6399 H   0  0  0  0  0  0  0  0  0  0  0  0 
    4.6111    0.1871   -0.0623 H   0  0  0  0  0  0  0  0  0  0  0  0 
    4.0277   -2.2080    1.7995 H   0  0  0  0  0  0  0  0  0  0  0  0 
    4.4471   -2.3441    0.1102 H   0  0  0  0  0  0  0  0  0  0  0  0 
   -0.0217   -1.9169   -0.1355 H   0  0  0  0  0  0  0  0  0  0  0  0 
   -2.1193   -2.7960   -0.6018 H   0  0  0  0  0  0  0  0  0  0  0  0 
    2.3049   -3.7780    0.5700 H   0  0  0  0  0  0  0  0  0  0  0  0 
   -3.7425   -4.6779   -0.8798 H   0  0  0  0  0  0  0  0  0  0  0  0 
    1.0343   -5.5939    0.3828 H   0  0  0  0  0  0  0  0  0  0  0  0 
   -1.8737   -9.0335   -1.0318 H   0  0  0  0  0  0  0  0  0  0  0  0 
   -2.3115   -8.9039    0.7150 H   0  0  0  0  0  0  0  0  0  0  0  0 
  1 16  1  0  0  0  0 
  1 17  1  0  0  0  0 
  2  1  1  0  0  0  0 
  2 19  1  0  0  0  0 
  3  5  2  0  0  0  0 
  4  9  1  0  0  0  0 
  5 10  1  0  0  0  0 
  5 23  1  0  0  0  0 
  6  4  2  0  0  0  0 
  6 11  1  0  0  0  0 
  7 25  1  0  0  0  0 
  8 15  1  0  0  0  0 
  8 27  1  0  0  0  0 
  9  3  1  0  0  0  0 
  9  7  2  0  0  0  0 
 10  2  1  0  0  0  0 
 11 12  2  0  0  0  0 
 12 15  1  0  0  0  0 
 12  7  1  0  0  0  0 
 13 10  2  0  0  0  0 
 14 11  1  0  0  0  0 
 14  8  1  0  0  0  0 
 18  1  1  0  0  0  0 
 20  2  1  0  0  0  0 
 21  3  1  0  0  0  0 
 22  4  1  0  0  0  0 
 24  6  1  0  0  0  0 
 26  8  1  0  0  0  0 
M  END 
>  <HBA> 
3 
 
>  <HBD> 
0 
 
>  <TPSA> 
35.53 
 
>  <cid> 
66316 
 
>  <dipole> 
4.05 
 
>  <excitation_energy_1> 
3.46 
 
>  <excitation_energy_2> 
3.71 
 
>  <excitation_energy_3> 
4.363 
 
>  <excitation_energy_4> 
4.822 
 
>  <homo_energy> 
-5.72 
 
>  <homo_lumo_gap> 
4.0 
 
>  <logP> 
2.408 
 
>  <lumo_energy> 
-1.72 
 
>  <melting_point> 
81.7 
 
>  <molecular_refractivity> 
57.22 
 
>  <oscillator_strength_1> 
0.0 
 
>  <oscillator_strength_2> 
0.5012 
 
>  <oscillator_strength_3> 
0.1771 
 
>  <oscillator_strength_4> 
0.0791 
 
>  <open_babel_can_smiles> 
CCC(=O)/C=C/c1ccc2c(c1)OCO2 
 
>  <mulliken_charges> 
27 
1   -0.432609 
2   -0.358363 
3   -0.158045 
4   -0.207715 
5   -0.205067 
6   -0.182164 
7   -0.234926 
8   0.192323 
9   0.164596 
10   0.441671 
11   0.340833 
12   0.339357 
13   -0.478741 
14   -0.525592 
15   -0.532075 
16   0.135883 
17   0.16043 
18   0.159722 
19   0.157059 
20   0.156417 
21   0.165094 
22   0.145176 
23   0.123952 
24   0.152573 
25   0.148703 
26   0.165856 
27   0.165651 
 
>  <lowdin_charges> 
27 
1   -0.439576 
2   -0.308646 
3   -0.09812 
4   -0.151119 
5   -0.225968 
6   -0.180326 
7   -0.176535 
8   0.018346 
9   -0.012684 
10   0.154845 
11   0.080906 
12   0.075262 
13   -0.26139 
14   -0.196061 
15   -0.204766 
16   0.146786 
17   0.159932 
18   0.158159 
19   0.158888 
20   0.159816 
21   0.174729 
22   0.165702 
23   0.152952 
24   0.173069 
25   0.171309 
26   0.152287 
27   0.152204 
 
$$$$ 
 
