PCCDB-ID:  13199 
public computational chemistry database (PCCDB) project, http://pccdb.org 
 
 20 20  0  0  0  0  0  0  0  0999 V2000 
    0.7432    1.3032   -0.2867 C   0  0  0  0  0  0  0  0  0  0  0  0 
    1.4934    0.0589    0.2141 C   0  0  0  0  0  0  0  0  0  0  0  0 
   -0.7156    1.3154    0.1963 C   0  0  0  0  0  0  0  0  0  0  0  0 
    0.7551   -1.2351   -0.1635 C   0  0  0  0  0  0  0  0  0  0  0  0 
   -1.4479    0.0236   -0.2008 C   0  0  0  0  0  0  0  0  0  0  0  0 
   -0.7214   -1.2500    0.2900 C   0  0  0  0  0  0  0  0  0  0  0  0 
   -1.0340   -1.5458    2.1358 P   0  0  0  0  0  0  0  0  0  0  0  0 
    0.7558    1.3125   -1.3871 H   0  0  0  0  0  0  0  0  0  0  0  0 
    1.2605    2.2147    0.0385 H   0  0  0  0  0  0  0  0  0  0  0  0 
    1.6094    0.1180    1.3048 H   0  0  0  0  0  0  0  0  0  0  0  0 
    2.5086    0.0357   -0.2021 H   0  0  0  0  0  0  0  0  0  0  0  0 
   -1.2455    2.1821   -0.2189 H   0  0  0  0  0  0  0  0  0  0  0  0 
   -0.7389    1.4365    1.2888 H   0  0  0  0  0  0  0  0  0  0  0  0 
    1.2865   -2.1091    0.2321 H   0  0  0  0  0  0  0  0  0  0  0  0 
    0.7696   -1.3337   -1.2606 H   0  0  0  0  0  0  0  0  0  0  0  0 
   -1.5082   -0.0210   -1.2987 H   0  0  0  0  0  0  0  0  0  0  0  0 
   -2.4810    0.0402    0.1673 H   0  0  0  0  0  0  0  0  0  0  0  0 
   -1.2147   -2.1164   -0.1726 H   0  0  0  0  0  0  0  0  0  0  0  0 
   -0.0457   -0.6814    2.6885 H   0  0  0  0  0  0  0  0  0  0  0  0 
   -0.2063   -2.7004    2.2644 H   0  0  0  0  0  0  0  0  0  0  0  0 
  1  9  1  0  0  0  0 
  1  3  1  0  0  0  0 
  1  2  1  0  0  0  0 
  2 10  1  0  0  0  0 
  3 13  1  0  0  0  0 
  4  2  1  0  0  0  0 
  4 14  1  0  0  0  0 
  4  6  1  0  0  0  0 
  5 17  1  0  0  0  0 
  5  3  1  0  0  0  0 
  5  6  1  0  0  0  0 
  6  7  1  0  0  0  0 
  7 20  1  0  0  0  0 
  7 19  1  0  0  0  0 
  8  1  1  0  0  0  0 
 11  2  1  0  0  0  0 
 12  3  1  0  0  0  0 
 15  4  1  0  0  0  0 
 16  5  1  0  0  0  0 
 18  6  1  0  0  0  0 
M  END 
>  <HBA> 
0 
 
>  <HBD> 
1 
 
>  <TPSA> 
13.59 
 
>  <cid> 
13199 
 
>  <dipole> 
1.45 
 
>  <excitation_energy_1> 
5.86 
 
>  <excitation_energy_2> 
6.295 
 
>  <excitation_energy_3> 
6.578 
 
>  <excitation_energy_4> 
6.65 
 
>  <homo_energy> 
-6.675 
 
>  <homo_lumo_gap> 
7.646 
 
>  <logP> 
2.194 
 
>  <lumo_energy> 
0.971 
 
>  <melting_point> 
7.3 
 
>  <molecular_refractivity> 
37.49 
 
>  <oscillator_strength_1> 
0.0493 
 
>  <oscillator_strength_2> 
0.0467 
 
>  <oscillator_strength_3> 
0.0958 
 
>  <oscillator_strength_4> 
0.004 
 
>  <open_babel_can_smiles> 
PC1CCCCC1 
 
>  <mulliken_charges> 
20 
1   -0.254303 
2   -0.259036 
3   -0.261738 
4   -0.252111 
5   -0.268906 
6   -0.259857 
7   0.058624 
8   0.127158 
9   0.13162 
10   0.133519 
11   0.132647 
12   0.13407 
13   0.135555 
14   0.135223 
15   0.130401 
16   0.133341 
17   0.146514 
18   0.151516 
19   0.005117 
20   0.000644 
 
>  <lowdin_charges> 
20 
1   -0.276212 
2   -0.277373 
3   -0.278226 
4   -0.276754 
5   -0.276434 
6   -0.268733 
7   0.012325 
8   0.134655 
9   0.144436 
10   0.13887 
11   0.144114 
12   0.146286 
13   0.139998 
14   0.146594 
15   0.137966 
16   0.138981 
17   0.149907 
18   0.158279 
19   0.030358 
20   0.030961 
 
$$$$ 
 
