PCCDB-ID:  12088 
public computational chemistry database (PCCDB) project, http://pccdb.org 
 
 17 17  0  0  0  0  0  0  0  0999 V2000 
   -0.7464    1.1582    0.0718 C   0  0  0  0  0  0  0  0  0  0  0  0 
    1.4239    0.1011   -0.1922 C   0  0  0  0  0  0  0  0  0  0  0  0 
   -1.3562   -0.0917    0.0874 C   0  0  0  0  0  0  0  0  0  0  0  0 
    0.8188   -1.1491   -0.1759 C   0  0  0  0  0  0  0  0  0  0  0  0 
    1.2877    2.5977   -0.0856 C   0  0  0  0  0  0  0  0  0  0  0  0 
    0.6440    1.2609   -0.0686 C   0  0  0  0  0  0  0  0  0  0  0  0 
   -0.5755   -1.2485   -0.0361 C   0  0  0  0  0  0  0  0  0  0  0  0 
   -1.2773   -2.5629   -0.0126 C   0  0  0  0  0  0  0  0  0  0  0  0 
    2.4828    2.7841   -0.2022 O   0  0  0  0  0  0  0  0  0  0  0  0 
   -0.4327   -3.6159   -0.1430 O   0  0  0  0  0  0  0  0  0  0  0  0 
   -2.4771   -2.7042    0.1089 O   0  0  0  0  0  0  0  0  0  0  0  0 
   -1.3462    2.0608    0.1655 H   0  0  0  0  0  0  0  0  0  0  0  0 
    2.4989    0.2065   -0.2996 H   0  0  0  0  0  0  0  0  0  0  0  0 
   -2.4307   -0.1963    0.1935 H   0  0  0  0  0  0  0  0  0  0  0  0 
    1.4133   -2.0506   -0.2718 H   0  0  0  0  0  0  0  0  0  0  0  0 
    0.5847    3.4534    0.0185 H   0  0  0  0  0  0  0  0  0  0  0  0 
   -0.9941   -4.4128   -0.1122 H   0  0  0  0  0  0  0  0  0  0  0  0 
  1  3  1  0  0  0  0 
  1 12  1  0  0  0  0 
  2  4  2  0  0  0  0 
  2  6  1  0  0  0  0 
  3 14  1  0  0  0  0 
  4  7  1  0  0  0  0 
  5  6  1  0  0  0  0 
  5 16  1  0  0  0  0 
  6  1  2  0  0  0  0 
  7  8  1  0  0  0  0 
  7  3  2  0  0  0  0 
  8 11  2  0  0  0  0 
  9  5  2  0  0  0  0 
 10 17  1  0  0  0  0 
 10  8  1  0  0  0  0 
 13  2  1  0  0  0  0 
 15  4  1  0  0  0  0 
M  END 
>  <HBA> 
3 
 
>  <HBD> 
1 
 
>  <TPSA> 
54.37 
 
>  <cid> 
12088 
 
>  <dipole> 
1.54 
 
>  <excitation_energy_1> 
3.459 
 
>  <excitation_energy_2> 
4.378 
 
>  <excitation_energy_3> 
4.451 
 
>  <excitation_energy_4> 
4.849 
 
>  <homo_energy> 
-7.23 
 
>  <homo_lumo_gap> 
4.816 
 
>  <logP> 
1.197 
 
>  <lumo_energy> 
-2.414 
 
>  <melting_point> 
129.42 
 
>  <molecular_refractivity> 
38.79 
 
>  <oscillator_strength_1> 
0.0 
 
>  <oscillator_strength_2> 
0.0333 
 
>  <oscillator_strength_3> 
0.0 
 
>  <oscillator_strength_4> 
0.4434 
 
>  <open_babel_can_smiles> 
O=Cc1ccc(cc1)C(=O)O 
 
>  <mulliken_charges> 
17 
1   -0.186234 
2   -0.164526 
3   -0.158904 
4   -0.160555 
5   0.198859 
6   0.103282 
7   0.075143 
8   0.544821 
9   -0.397409 
10   -0.579436 
11   -0.466349 
12   0.149443 
13   0.170865 
14   0.173962 
15   0.170929 
16   0.109724 
17   0.416385 
 
>  <lowdin_charges> 
17 
1   -0.14286 
2   -0.123558 
3   -0.12547 
4   -0.135806 
5   0.045488 
6   -0.040126 
7   -0.030076 
8   0.191316 
9   -0.216357 
10   -0.354134 
11   -0.262803 
12   0.166935 
13   0.177744 
14   0.180171 
15   0.179295 
16   0.123194 
17   0.367046 
 
$$$$ 
 
