PCCDB-ID:  42443 
public computational chemistry database (PCCDB) project, http://pccdb.org 
 
 26 27  0  0  1  0  0  0  0  0999 V2000 
    0.8368    0.0752    0.5939 C   0  0  0  0  0  0  0  0  0  0  0  0 
    4.2221   -3.7263    0.3228 C   0  0  0  0  0  0  0  0  0  0  0  0 
    5.0237   -1.0289    3.9956 C   0  0  0  0  0  0  0  0  0  0  0  0 
    4.7352    0.1943    3.4021 C   0  0  0  0  0  0  0  0  0  0  0  0 
    4.6584   -2.2157    3.3528 C   0  0  0  0  0  0  0  0  0  0  0  0 
    3.7579    1.4819    1.4835 C   0  0  0  0  0  0  0  0  0  0  0  0 
    2.6401    2.6741   -0.3185 C   0  0  0  0  0  0  0  0  0  0  0  0 
    2.2380    0.1989   -0.0091 C   0  0  1  0  0  0  0  0  0  0  0  0 
    4.0535    0.2423    2.1747 C   0  0  0  0  0  0  0  0  0  0  0  0 
    2.9367    1.4870    0.4096 C   0  0  0  0  0  0  0  0  0  0  0  0 
    3.9884   -2.1968    2.1275 C   0  0  0  0  0  0  0  0  0  0  0  0 
    3.6662   -0.9588    1.5459 C   0  0  0  0  0  0  0  0  0  0  0  0 
    2.3682    3.6235   -0.9375 N   0  0  0  0  0  0  0  0  0  0  0  0 
    3.5999   -3.3858    1.5661 O   0  0  0  0  0  0  0  0  0  0  0  0 
    3.0391   -0.9525    0.3332 O   0  0  0  0  0  0  0  0  0  0  0  0 
    0.2110    0.9112    0.2630 H   0  0  0  0  0  0  0  0  0  0  0  0 
    0.8824    0.0905    1.6875 H   0  0  0  0  0  0  0  0  0  0  0  0 
    0.3724   -0.8622    0.2723 H   0  0  0  0  0  0  0  0  0  0  0  0 
    3.8298   -4.7088    0.0515 H   0  0  0  0  0  0  0  0  0  0  0  0 
    5.3122   -3.7898    0.4381 H   0  0  0  0  0  0  0  0  0  0  0  0 
    3.9771   -3.0030   -0.4604 H   0  0  0  0  0  0  0  0  0  0  0  0 
    5.5410   -1.0671    4.9493 H   0  0  0  0  0  0  0  0  0  0  0  0 
    5.0259    1.1255    3.8812 H   0  0  0  0  0  0  0  0  0  0  0  0 
    4.8750   -3.1840    3.7936 H   0  0  0  0  0  0  0  0  0  0  0  0 
    4.2237    2.4005    1.8293 H   0  0  0  0  0  0  0  0  0  0  0  0 
    2.1728    0.1544   -1.0998 H   0  0  0  0  0  0  0  0  0  0  0  0 
  1 17  1  0  0  0  0 
  2 20  1  0  0  0  0 
  2 14  1  0  0  0  0 
  3 22  1  0  0  0  0 
  4 23  1  0  0  0  0 
  4  3  1  0  0  0  0 
  5 24  1  0  0  0  0 
  5  3  2  0  0  0  0 
  6 25  1  0  0  0  0 
  6  9  1  0  0  0  0 
  7 10  1  0  0  0  0 
  8 26  1  6  0  0  0 
  8 15  1  0  0  0  0 
  8 10  1  0  0  0  0 
  8  1  1  0  0  0  0 
  9  4  2  0  0  0  0 
 10  6  2  0  0  0  0 
 11  5  1  0  0  0  0 
 12 11  2  0  0  0  0 
 12  9  1  0  0  0  0 
 13  7  3  0  0  0  0 
 14 11  1  0  0  0  0 
 15 12  1  0  0  0  0 
 16  1  1  0  0  0  0 
 18  1  1  0  0  0  0 
 19  2  1  0  0  0  0 
 21  2  1  0  0  0  0 
M  END 
>  <HBA> 
3 
 
>  <HBD> 
0 
 
>  <TPSA> 
42.25 
 
>  <cid> 
42443 
 
>  <dipole> 
3.53 
 
>  <excitation_energy_1> 
3.531 
 
>  <excitation_energy_2> 
4.158 
 
>  <excitation_energy_3> 
5.021 
 
>  <excitation_energy_4> 
5.282 
 
>  <homo_energy> 
-6.12 
 
>  <homo_lumo_gap> 
4.169 
 
>  <logP> 
2.383 
 
>  <lumo_energy> 
-1.951 
 
>  <melting_point> 
97.63 
 
>  <molecular_refractivity> 
56.77 
 
>  <oscillator_strength_1> 
0.0713 
 
>  <oscillator_strength_2> 
0.3167 
 
>  <oscillator_strength_3> 
0.0097 
 
>  <oscillator_strength_4> 
0.141 
 
>  <open_babel_can_smiles> 
C[C@@H]1Oc2c(C=C1C#N)cccc2OC 
 
>  <mulliken_charges> 
26 
1   -0.450773 
2   -0.217345 
3   -0.141891 
4   -0.198884 
5   -0.171176 
6   -0.154177 
7   0.258085 
8   0.076391 
9   0.129573 
10   0.080996 
11   0.308888 
12   0.2886 
13   -0.481909 
14   -0.521065 
15   -0.539429 
16   0.167844 
17   0.164598 
18   0.169481 
19   0.163245 
20   0.142923 
21   0.170097 
22   0.138265 
23   0.13757 
24   0.146131 
25   0.165158 
26   0.168803 
 
>  <lowdin_charges> 
26 
1   -0.453266 
2   -0.273369 
3   -0.164474 
4   -0.15435 
5   -0.158398 
6   -0.108302 
7   -0.018864 
8   0.025985 
9   -0.047085 
10   -0.053873 
11   0.069976 
12   0.086139 
13   -0.120551 
14   -0.22166 
15   -0.190426 
16   0.16808 
17   0.160814 
18   0.16532 
19   0.158327 
20   0.138581 
21   0.154173 
22   0.163177 
23   0.162854 
24   0.171373 
25   0.177931 
26   0.161886 
 
$$$$ 
 
