PCCDB-ID:  6706 
public computational chemistry database (PCCDB) project, http://pccdb.org 
 
 29 31  0  0  0  0  0  0  0  0999 V2000 
    2.1631    1.0829   -0.6714 C   0  0  0  0  0  0  0  0  0  0  0  0 
    2.8825   -7.1160    1.9201 C   0  0  0  0  0  0  0  0  0  0  0  0 
    2.2903   -6.8259    0.6850 C   0  0  0  0  0  0  0  0  0  0  0  0 
    3.9564    0.0887    3.0952 C   0  0  0  0  0  0  0  0  0  0  0  0 
    3.3544   -6.0830    2.7244 C   0  0  0  0  0  0  0  0  0  0  0  0 
    2.1715   -5.5063    0.2574 C   0  0  0  0  0  0  0  0  0  0  0  0 
    4.0719   -1.2439    3.5060 C   0  0  0  0  0  0  0  0  0  0  0  0 
    3.3780    0.4122    1.8811 C   0  0  0  0  0  0  0  0  0  0  0  0 
    3.2378   -4.7541    2.3003 C   0  0  0  0  0  0  0  0  0  0  0  0 
    2.6436   -4.4608    1.0606 C   0  0  0  0  0  0  0  0  0  0  0  0 
    3.5975   -2.2563    2.6807 C   0  0  0  0  0  0  0  0  0  0  0  0 
    2.8837   -0.5962    1.0119 C   0  0  0  0  0  0  0  0  0  0  0  0 
    2.9960   -1.9672    1.4263 C   0  0  0  0  0  0  0  0  0  0  0  0 
    3.7458   -3.6617    3.1709 C   0  0  0  0  0  0  0  0  0  0  0  0 
    2.5012   -3.0557    0.5762 C   0  0  0  0  0  0  0  0  0  0  0  0 
    2.3215   -0.2671   -0.1790 N   0  0  0  0  0  0  0  0  0  0  0  0 
    4.2668   -3.9064    4.2547 O   0  0  0  0  0  0  0  0  0  0  0  0 
    1.9680   -2.8584   -0.5299 O   0  0  0  0  0  0  0  0  0  0  0  0 
    1.6788    1.0358   -1.6491 H   0  0  0  0  0  0  0  0  0  0  0  0 
    3.1282    1.5940   -0.7943 H   0  0  0  0  0  0  0  0  0  0  0  0 
    1.5344    1.6945   -0.0091 H   0  0  0  0  0  0  0  0  0  0  0  0 
    2.9736   -8.1469    2.2512 H   0  0  0  0  0  0  0  0  0  0  0  0 
    1.9217   -7.6324    0.0568 H   0  0  0  0  0  0  0  0  0  0  0  0 
    4.3247    0.8852    3.7366 H   0  0  0  0  0  0  0  0  0  0  0  0 
    3.8179   -6.2768    3.6861 H   0  0  0  0  0  0  0  0  0  0  0  0 
    1.7166   -5.2594   -0.6957 H   0  0  0  0  0  0  0  0  0  0  0  0 
    4.5215   -1.5128    4.4546 H   0  0  0  0  0  0  0  0  0  0  0  0 
    3.2995    1.4521    1.5848 H   0  0  0  0  0  0  0  0  0  0  0  0 
    1.9929   -1.0571   -0.7278 H   0  0  0  0  0  0  0  0  0  0  0  0 
  1 16  1  0  0  0  0 
  1 21  1  0  0  0  0 
  2 22  1  0  0  0  0 
  2  5  2  0  0  0  0 
  3  2  1  0  0  0  0 
  4  7  1  0  0  0  0 
  4 24  1  0  0  0  0 
  5 25  1  0  0  0  0 
  6  3  2  0  0  0  0 
  6 10  1  0  0  0  0 
  7 27  1  0  0  0  0 
  8  4  2  0  0  0  0 
  9  5  1  0  0  0  0 
  9 14  1  0  0  0  0 
 10  9  2  0  0  0  0 
 11 14  1  0  0  0  0 
 11  7  2  0  0  0  0 
 12 13  2  0  0  0  0 
 12  8  1  0  0  0  0 
 13 11  1  0  0  0  0 
 14 17  2  0  0  0  0 
 15 10  1  0  0  0  0 
 15 13  1  0  0  0  0 
 16 12  1  0  0  0  0 
 18 15  2  0  0  0  0 
 19  1  1  0  0  0  0 
 20  1  1  0  0  0  0 
 23  3  1  0  0  0  0 
 26  6  1  0  0  0  0 
 28  8  1  0  0  0  0 
 29 16  1  0  0  0  0 
M  END 
>  <HBA> 
3 
 
>  <HBD> 
1 
 
>  <TPSA> 
46.17 
 
>  <cid> 
6706 
 
>  <dipole> 
2.48 
 
>  <excitation_energy_1> 
2.543 
 
>  <excitation_energy_2> 
2.979 
 
>  <excitation_energy_3> 
3.301 
 
>  <excitation_energy_4> 
3.633 
 
>  <homo_energy> 
-5.614 
 
>  <homo_lumo_gap> 
3.01 
 
>  <logP> 
2.577 
 
>  <lumo_energy> 
-2.604 
 
>  <melting_point> 
158.44 
 
>  <molecular_refractivity> 
69.05 
 
>  <oscillator_strength_1> 
0.1251 
 
>  <oscillator_strength_2> 
0.0 
 
>  <oscillator_strength_3> 
0.0 
 
>  <oscillator_strength_4> 
0.0008 
 
>  <open_babel_can_smiles> 
CNc1cccc2c1C(=O)c1c(C2=O)cccc1 
 
>  <mulliken_charges> 
29 
1   -0.303381 
2   -0.12749 
3   -0.124367 
4   -0.130252 
5   -0.172144 
6   -0.175972 
7   -0.185316 
8   -0.17978 
9   0.048604 
10   0.057677 
11   0.023976 
12   0.333657 
13   0.008055 
14   0.340813 
15   0.359081 
16   -0.668182 
17   -0.482575 
18   -0.54799 
19   0.168511 
20   0.161871 
21   0.161653 
22   0.142495 
23   0.141929 
24   0.140792 
25   0.166218 
26   0.164978 
27   0.161435 
28   0.137143 
29   0.378562 
 
>  <lowdin_charges> 
29 
1   -0.352594 
2   -0.141489 
3   -0.141879 
4   -0.126896 
5   -0.126965 
6   -0.131268 
7   -0.15986 
8   -0.19436 
9   -0.037376 
10   -0.029773 
11   -0.024644 
12   0.088717 
13   -0.088878 
14   0.151573 
15   0.152278 
16   -0.267348 
17   -0.243508 
18   -0.291933 
19   0.165559 
20   0.150519 
21   0.151753 
22   0.162977 
23   0.164928 
24   0.16483 
25   0.178272 
26   0.177801 
27   0.177863 
28   0.164047 
29   0.307657 
 
$$$$ 
 
