PCCDB-ID:  22433 
public computational chemistry database (PCCDB) project, http://pccdb.org 
 
 28 27  0  0  0  0  0  0  0  0999 V2000 
    5.7884   -2.0365   -2.1552 C   0  0  0  0  0  0  0  0  0  0  0  0 
    4.9286   -0.7978   -1.8848 C   0  0  0  0  0  0  0  0  0  0  0  0 
    5.3907   -0.0000   -0.6590 C   0  0  0  0  0  0  0  0  0  0  0  0 
    4.5246    1.2375   -0.3867 C   0  0  0  0  0  0  0  0  0  0  0  0 
    4.9505    2.0299    0.8545 C   0  0  0  0  0  0  0  0  0  0  0  0 
    6.8161    3.4545    1.9554 C   0  0  0  0  0  0  0  0  0  0  0  0 
    8.2039    4.1041    1.7960 C   0  0  0  0  0  0  0  0  0  0  0  0 
    6.2341    2.8281    0.6948 C   0  0  0  0  0  0  0  0  0  0  0  0 
    8.1978    5.4721    1.1056 C   0  0  0  0  0  0  0  0  0  0  0  0 
    6.7614    2.9757   -0.4010 O   0  0  0  0  0  0  0  0  0  0  0  0 
    8.4532    6.4992    1.6890 O   0  0  0  0  0  0  0  0  0  0  0  0 
    7.8907    5.4671   -0.2058 O   0  0  0  0  0  0  0  0  0  0  0  0 
    5.4341   -2.5839   -3.0358 H   0  0  0  0  0  0  0  0  0  0  0  0 
    5.7686   -2.7276   -1.3034 H   0  0  0  0  0  0  0  0  0  0  0  0 
    6.8350   -1.7607   -2.3332 H   0  0  0  0  0  0  0  0  0  0  0  0 
    3.8808   -1.1012   -1.7467 H   0  0  0  0  0  0  0  0  0  0  0  0 
    4.9425   -0.1424   -2.7668 H   0  0  0  0  0  0  0  0  0  0  0  0 
    6.4340    0.3098   -0.8026 H   0  0  0  0  0  0  0  0  0  0  0  0 
    5.3776   -0.6555    0.2254 H   0  0  0  0  0  0  0  0  0  0  0  0 
    3.4795    0.9280   -0.2561 H   0  0  0  0  0  0  0  0  0  0  0  0 
    4.5514    1.9028   -1.2576 H   0  0  0  0  0  0  0  0  0  0  0  0 
    5.0477    1.3744    1.7314 H   0  0  0  0  0  0  0  0  0  0  0  0 
    4.1737    2.7608    1.1299 H   0  0  0  0  0  0  0  0  0  0  0  0 
    6.0868    4.1784    2.3475 H   0  0  0  0  0  0  0  0  0  0  0  0 
    6.8704    2.6649    2.7169 H   0  0  0  0  0  0  0  0  0  0  0  0 
    8.8601    3.4196    1.2441 H   0  0  0  0  0  0  0  0  0  0  0  0 
    8.6371    4.2626    2.7853 H   0  0  0  0  0  0  0  0  0  0  0  0 
    7.6642    4.5508   -0.4837 H   0  0  0  0  0  0  0  0  0  0  0  0 
  1  2  1  0  0  0  0 
  1 14  1  0  0  0  0 
  2 16  1  0  0  0  0 
  2  3  1  0  0  0  0 
  3  4  1  0  0  0  0 
  3 19  1  0  0  0  0 
  4 20  1  0  0  0  0 
  4  5  1  0  0  0  0 
  5 23  1  0  0  0  0 
  5 22  1  0  0  0  0 
  6 24  1  0  0  0  0 
  6 25  1  0  0  0  0 
  7  6  1  0  0  0  0 
  7 27  1  0  0  0  0 
  8  5  1  0  0  0  0 
  8  6  1  0  0  0  0 
  9 11  2  0  0  0  0 
  9  7  1  0  0  0  0 
 10  8  2  0  0  0  0 
 12  9  1  0  0  0  0 
 13  1  1  0  0  0  0 
 15  1  1  0  0  0  0 
 17  2  1  0  0  0  0 
 18  3  1  0  0  0  0 
 21  4  1  0  0  0  0 
 26  7  1  0  0  0  0 
 28 12  1  0  0  0  0 
M  END 
>  <HBA> 
3 
 
>  <HBD> 
1 
 
>  <TPSA> 
54.37 
 
>  <cid> 
22433 
 
>  <dipole> 
6.22 
 
>  <excitation_energy_1> 
4.519 
 
>  <excitation_energy_2> 
5.068 
 
>  <excitation_energy_3> 
5.548 
 
>  <excitation_energy_4> 
6.13 
 
>  <homo_energy> 
-6.934 
 
>  <homo_lumo_gap> 
5.625 
 
>  <logP> 
2.001 
 
>  <lumo_energy> 
-1.309 
 
>  <melting_point> 
69.99 
 
>  <molecular_refractivity> 
47.35 
 
>  <oscillator_strength_1> 
0.0003 
 
>  <oscillator_strength_2> 
0.002 
 
>  <oscillator_strength_3> 
0.0019 
 
>  <oscillator_strength_4> 
0.0009 
 
>  <open_babel_can_smiles> 
CCCCCC(=O)CCC(=O)O 
 
>  <mulliken_charges> 
28 
1   -0.443153 
2   -0.248889 
3   -0.254102 
4   -0.251411 
5   -0.363005 
6   -0.369609 
7   -0.375572 
8   0.472971 
9   0.576746 
10   -0.472223 
11   -0.448667 
12   -0.585608 
13   0.145346 
14   0.140798 
15   0.144953 
16   0.13052 
17   0.138183 
18   0.147022 
19   0.122505 
20   0.13613 
21   0.158102 
22   0.162039 
23   0.17607 
24   0.193191 
25   0.177323 
26   0.171635 
27   0.179551 
28   0.439153 
 
>  <lowdin_charges> 
28 
1   -0.443841 
2   -0.270284 
3   -0.27721 
4   -0.272455 
5   -0.308483 
6   -0.309536 
7   -0.316039 
8   0.183707 
9   0.18807 
10   -0.249211 
11   -0.255887 
12   -0.367969 
13   0.151912 
14   0.146446 
15   0.146871 
16   0.137301 
17   0.143253 
18   0.145275 
19   0.134832 
20   0.145578 
21   0.156457 
22   0.162815 
23   0.175334 
24   0.180134 
25   0.173367 
26   0.167795 
27   0.17586 
28   0.355908 
 
$$$$ 
 
