PCCDB-ID:  69534 
public computational chemistry database (PCCDB) project, http://pccdb.org 
 
 33 32  0  0  0  0  0  0  0  0999 V2000 
    1.1875    1.2345    1.3848 C   0  0  0  0  0  0  0  0  0  0  0  0 
   -0.0997    0.6234    1.9574 C   0  0  0  0  0  0  0  0  0  0  0  0 
    1.9261    0.3467    0.3689 C   0  0  0  0  0  0  0  0  0  0  0  0 
   -0.7566    1.5080    3.0277 C   0  0  0  0  0  0  0  0  0  0  0  0 
    1.1528    0.0789   -0.9295 C   0  0  0  0  0  0  0  0  0  0  0  0 
   -2.0997    0.9854    3.5661 C   0  0  0  0  0  0  0  0  0  0  0  0 
    1.9523   -0.7460   -1.9457 C   0  0  0  0  0  0  0  0  0  0  0  0 
   -2.0372   -0.3652    4.2904 C   0  0  0  0  0  0  0  0  0  0  0  0 
    1.1717   -1.0891   -3.2198 C   0  0  0  0  0  0  0  0  0  0  0  0 
   -1.1851   -0.2929    5.4863 N   0  0  0  0  0  0  0  0  0  0  0  0 
    0.0091   -1.9352   -2.9164 N   0  0  0  0  0  0  0  0  0  0  0  0 
    1.8704    1.4626    2.2161 H   0  0  0  0  0  0  0  0  0  0  0  0 
    0.9504    2.2014    0.9160 H   0  0  0  0  0  0  0  0  0  0  0  0 
    0.1343   -0.3665    2.3766 H   0  0  0  0  0  0  0  0  0  0  0  0 
   -0.8213    0.4456    1.1485 H   0  0  0  0  0  0  0  0  0  0  0  0 
    2.1784   -0.6132    0.8452 H   0  0  0  0  0  0  0  0  0  0  0  0 
    2.8869    0.8214    0.1215 H   0  0  0  0  0  0  0  0  0  0  0  0 
   -0.9213    2.5092    2.6050 H   0  0  0  0  0  0  0  0  0  0  0  0 
   -0.0585    1.6549    3.8644 H   0  0  0  0  0  0  0  0  0  0  0  0 
    0.8739    1.0398   -1.3889 H   0  0  0  0  0  0  0  0  0  0  0  0 
    0.2138   -0.4446   -0.7206 H   0  0  0  0  0  0  0  0  0  0  0  0 
   -2.8107    0.8958    2.7323 H   0  0  0  0  0  0  0  0  0  0  0  0 
   -2.5133    1.7247    4.2632 H   0  0  0  0  0  0  0  0  0  0  0  0 
    2.2914   -1.6818   -1.4737 H   0  0  0  0  0  0  0  0  0  0  0  0 
    2.8659   -0.2051   -2.2311 H   0  0  0  0  0  0  0  0  0  0  0  0 
   -1.7371   -1.1546    3.5777 H   0  0  0  0  0  0  0  0  0  0  0  0 
   -3.0489   -0.6232    4.6271 H   0  0  0  0  0  0  0  0  0  0  0  0 
    1.8659   -1.5374   -3.9542 H   0  0  0  0  0  0  0  0  0  0  0  0 
    0.7948   -0.1623   -3.6724 H   0  0  0  0  0  0  0  0  0  0  0  0 
   -0.2076   -0.2198    5.2077 H   0  0  0  0  0  0  0  0  0  0  0  0 
   -1.2566   -1.1655    6.0074 H   0  0  0  0  0  0  0  0  0  0  0  0 
    0.3310   -2.8561   -2.6184 H   0  0  0  0  0  0  0  0  0  0  0  0 
   -0.5362   -2.0899   -3.7628 H   0  0  0  0  0  0  0  0  0  0  0  0 
  1  2  1  0  0  0  0 
  1 12  1  0  0  0  0 
  2 14  1  0  0  0  0 
  2  4  1  0  0  0  0 
  3 16  1  0  0  0  0 
  3  1  1  0  0  0  0 
  4  6  1  0  0  0  0 
  4 19  1  0  0  0  0 
  5 21  1  0  0  0  0 
  5  3  1  0  0  0  0 
  6 23  1  0  0  0  0 
  6  8  1  0  0  0  0 
  7 24  1  0  0  0  0 
  7  5  1  0  0  0  0 
  8 27  1  0  0  0  0 
  8 10  1  0  0  0  0 
  9 11  1  0  0  0  0 
  9  7  1  0  0  0  0 
 10 31  1  0  0  0  0 
 11 32  1  0  0  0  0 
 13  1  1  0  0  0  0 
 15  2  1  0  0  0  0 
 17  3  1  0  0  0  0 
 18  4  1  0  0  0  0 
 20  5  1  0  0  0  0 
 22  6  1  0  0  0  0 
 25  7  1  0  0  0  0 
 26  8  1  0  0  0  0 
 28  9  1  0  0  0  0 
 29  9  1  0  0  0  0 
 30 10  1  0  0  0  0 
 33 11  1  0  0  0  0 
M  END 
>  <HBA> 
2 
 
>  <HBD> 
2 
 
>  <TPSA> 
52.04 
 
>  <cid> 
69534 
 
>  <dipole> 
2.78 
 
>  <excitation_energy_1> 
5.572 
 
>  <excitation_energy_2> 
5.59 
 
>  <excitation_energy_3> 
6.239 
 
>  <excitation_energy_4> 
6.272 
 
>  <homo_energy> 
-6.147 
 
>  <homo_lumo_gap> 
8.136 
 
>  <logP> 
3.035 
 
>  <lumo_energy> 
1.989 
 
>  <melting_point> 
79.94 
 
>  <molecular_refractivity> 
50.79 
 
>  <oscillator_strength_1> 
0.0117 
 
>  <oscillator_strength_2> 
0.0097 
 
>  <oscillator_strength_3> 
0.0163 
 
>  <oscillator_strength_4> 
0.0017 
 
>  <open_babel_can_smiles> 
NCCCCCCCCCN 
 
>  <mulliken_charges> 
33 
1   -0.253482 
2   -0.257226 
3   -0.254674 
4   -0.266895 
5   -0.248127 
6   -0.241608 
7   -0.253139 
8   -0.142354 
9   -0.138226 
10   -0.717462 
11   -0.711296 
12   0.123047 
13   0.126285 
14   0.123413 
15   0.138423 
16   0.121267 
17   0.122512 
18   0.130082 
19   0.131728 
20   0.119797 
21   0.163388 
22   0.123251 
23   0.140309 
24   0.120795 
25   0.126413 
26   0.115745 
27   0.135521 
28   0.111001 
29   0.136712 
30   0.294986 
31   0.293584 
32   0.290431 
33   0.295799 
 
>  <lowdin_charges> 
33 
1   -0.274939 
2   -0.280533 
3   -0.274979 
4   -0.27972 
5   -0.279024 
6   -0.281693 
7   -0.278742 
8   -0.208534 
9   -0.206722 
10   -0.560158 
11   -0.558674 
12   0.138844 
13   0.136931 
14   0.133732 
15   0.143011 
16   0.134425 
17   0.137092 
18   0.141654 
19   0.138911 
20   0.1352 
21   0.153903 
22   0.140012 
23   0.149762 
24   0.134775 
25   0.140474 
26   0.117622 
27   0.1418 
28   0.118958 
29   0.140484 
30   0.249026 
31   0.252954 
32   0.249459 
33   0.254688 
 
$$$$ 
 
