PCCDB-ID:  25221 
public computational chemistry database (PCCDB) project, http://pccdb.org 
 
 31 31  0  0  0  0  0  0  0  0999 V2000 
    0.9732    0.4831   -0.8483 C   0  0  0  0  0  0  0  0  0  0  0  0 
    4.8855   -2.4339    0.6164 C   0  0  0  0  0  0  0  0  0  0  0  0 
    2.0463   -3.2011   -0.7671 C   0  0  0  0  0  0  0  0  0  0  0  0 
    7.0468    4.5168   -1.2189 C   0  0  0  0  0  0  0  0  0  0  0  0 
    3.3480    1.3044   -0.9000 C   0  0  0  0  0  0  0  0  0  0  0  0 
    5.2054   -0.1015   -0.2631 C   0  0  0  0  0  0  0  0  0  0  0  0 
    2.4556    0.2626   -0.6402 C   0  0  0  0  0  0  0  0  0  0  0  0 
    4.3344   -1.1546    0.0344 C   0  0  0  0  0  0  0  0  0  0  0  0 
    4.7136    1.1085   -0.7302 C   0  0  0  0  0  0  0  0  0  0  0  0 
    2.9489   -0.9803   -0.1771 C   0  0  0  0  0  0  0  0  0  0  0  0 
    5.8160    2.7280   -2.1281 C   0  0  0  0  0  0  0  0  0  0  0  0 
    2.0543   -2.0412    0.1324 N   0  0  0  0  0  0  0  0  0  0  0  0 
    6.4678    3.7907   -2.3367 N   0  0  0  0  0  0  0  0  0  0  0  0 
    5.2556    2.0289   -3.1426 O   0  0  0  0  0  0  0  0  0  0  0  0 
    5.6240    2.1567   -0.9116 O   0  0  0  0  0  0  0  0  0  0  0  0 
    0.7864    1.4683   -1.2850 H   0  0  0  0  0  0  0  0  0  0  0  0 
    0.4083    0.4388    0.0938 H   0  0  0  0  0  0  0  0  0  0  0  0 
    0.5377   -0.2640   -1.5240 H   0  0  0  0  0  0  0  0  0  0  0  0 
    5.8285   -2.2459    1.1398 H   0  0  0  0  0  0  0  0  0  0  0  0 
    5.0924   -3.1880   -0.1552 H   0  0  0  0  0  0  0  0  0  0  0  0 
    4.1727   -2.8738    1.3211 H   0  0  0  0  0  0  0  0  0  0  0  0 
    1.2616   -3.8903   -0.4389 H   0  0  0  0  0  0  0  0  0  0  0  0 
    2.9980   -3.7344   -0.7096 H   0  0  0  0  0  0  0  0  0  0  0  0 
    1.8665   -2.9410   -1.8229 H   0  0  0  0  0  0  0  0  0  0  0  0 
    6.5919    4.2770   -0.2495 H   0  0  0  0  0  0  0  0  0  0  0  0 
    6.9393    5.5918   -1.4011 H   0  0  0  0  0  0  0  0  0  0  0  0 
    8.1228    4.3073   -1.1508 H   0  0  0  0  0  0  0  0  0  0  0  0 
    2.9811    2.2645   -1.2495 H   0  0  0  0  0  0  0  0  0  0  0  0 
    6.2742   -0.2111   -0.1047 H   0  0  0  0  0  0  0  0  0  0  0  0 
    1.1087   -1.6894    0.2304 H   0  0  0  0  0  0  0  0  0  0  0  0 
    5.4798    2.5384   -3.9413 H   0  0  0  0  0  0  0  0  0  0  0  0 
  1  7  1  0  0  0  0 
  1 17  1  0  0  0  0 
  2 19  1  0  0  0  0 
  2 21  1  0  0  0  0 
  3 23  1  0  0  0  0 
  3 22  1  0  0  0  0 
  3 12  1  0  0  0  0 
  4 27  1  0  0  0  0 
  4 25  1  0  0  0  0 
  5  9  2  0  0  0  0 
  5  7  1  0  0  0  0 
  6 29  1  0  0  0  0 
  6  8  2  0  0  0  0 
  7 10  2  0  0  0  0 
  8  2  1  0  0  0  0 
  9  6  1  0  0  0  0 
 10  8  1  0  0  0  0 
 10 12  1  0  0  0  0 
 11 15  1  0  0  0  0 
 12 30  1  0  0  0  0 
 13 11  2  0  0  0  0 
 13  4  1  0  0  0  0 
 14 11  1  0  0  0  0 
 15  9  1  0  0  0  0 
 16  1  1  0  0  0  0 
 18  1  1  0  0  0  0 
 20  2  1  0  0  0  0 
 24  3  1  0  0  0  0 
 26  4  1  0  0  0  0 
 28  5  1  0  0  0  0 
 31 14  1  0  0  0  0 
M  END 
>  <HBA> 
4 
 
>  <HBD> 
2 
 
>  <TPSA> 
50.36 
 
>  <cid> 
25221 
 
>  <dipole> 
2.67 
 
>  <excitation_energy_1> 
4.672 
 
>  <excitation_energy_2> 
4.845 
 
>  <excitation_energy_3> 
5.141 
 
>  <excitation_energy_4> 
5.373 
 
>  <homo_energy> 
-5.51 
 
>  <homo_lumo_gap> 
5.589 
 
>  <logP> 
2.527 
 
>  <lumo_energy> 
0.079 
 
>  <melting_point> 
111.9 
 
>  <molecular_refractivity> 
60.37 
 
>  <oscillator_strength_1> 
0.0311 
 
>  <oscillator_strength_2> 
0.0781 
 
>  <oscillator_strength_3> 
0.1066 
 
>  <oscillator_strength_4> 
0.0064 
 
>  <open_babel_can_smiles> 
C/N=C(\Oc1cc(C)c(c(c1)C)NC)/O 
 
>  <mulliken_charges> 
31 
1   -0.558602 
2   -0.538813 
3   -0.313019 
4   -0.321835 
5   -0.225186 
6   -0.241643 
7   0.158582 
8   0.16617 
9   0.375561 
10   0.160283 
11   0.703666 
12   -0.626739 
13   -0.485327 
14   -0.591974 
15   -0.542581 
16   0.164521 
17   0.160999 
18   0.161101 
19   0.154413 
20   0.158722 
21   0.178293 
22   0.151028 
23   0.164759 
24   0.139239 
25   0.15216 
26   0.150723 
27   0.151744 
28   0.130259 
29   0.131533 
30   0.310909 
31   0.421055 
 
>  <lowdin_charges> 
31 
1   -0.44844 
2   -0.4459 
3   -0.353286 
4   -0.349637 
5   -0.181047 
6   -0.178287 
7   -0.021749 
8   -0.008176 
9   0.092434 
10   0.021017 
11   0.18838 
12   -0.325529 
13   -0.268252 
14   -0.362318 
15   -0.160438 
16   0.16232 
17   0.156296 
18   0.158772 
19   0.157467 
20   0.156828 
21   0.169912 
22   0.153309 
23   0.155194 
24   0.130444 
25   0.14332 
26   0.148044 
27   0.147785 
28   0.16295 
29   0.163027 
30   0.263994 
31   0.371566 
 
$$$$ 
 
