PCCDB-ID:  11962 
public computational chemistry database (PCCDB) project, http://pccdb.org 
 
 28 29  0  0  0  0  0  0  0  0999 V2000 
    0.6455    0.4547    0.3152 C   0  0  0  0  0  0  0  0  0  0  0  0 
   11.2803   -0.4226   -0.2302 C   0  0  0  0  0  0  0  0  0  0  0  0 
   10.2561   -1.2884   -0.6211 C   0  0  0  0  0  0  0  0  0  0  0  0 
   10.9715    0.8183    0.3335 C   0  0  0  0  0  0  0  0  0  0  0  0 
    8.9232   -0.9189   -0.4500 C   0  0  0  0  0  0  0  0  0  0  0  0 
    9.6415    1.1923    0.5056 C   0  0  0  0  0  0  0  0  0  0  0  0 
    2.7960   -0.8437    0.6555 C   0  0  0  0  0  0  0  0  0  0  0  0 
    2.9295    1.3318   -0.3513 C   0  0  0  0  0  0  0  0  0  0  0  0 
    4.1822   -0.9683    0.5799 C   0  0  0  0  0  0  0  0  0  0  0  0 
    4.3172    1.2248   -0.4399 C   0  0  0  0  0  0  0  0  0  0  0  0 
    2.1449    0.3090    0.1974 C   0  0  0  0  0  0  0  0  0  0  0  0 
    8.6106    0.3258    0.1153 C   0  0  0  0  0  0  0  0  0  0  0  0 
    4.9343    0.0694    0.0353 C   0  0  0  0  0  0  0  0  0  0  0  0 
    7.2099    0.7849    0.3270 C   0  0  0  0  0  0  0  0  0  0  0  0 
    6.9001    1.8528    0.8063 O   0  0  0  0  0  0  0  0  0  0  0  0 
    6.3074   -0.1576   -0.0887 O   0  0  0  0  0  0  0  0  0  0  0  0 
    0.1386   -0.5107    0.2101 H   0  0  0  0  0  0  0  0  0  0  0  0 
    0.2469    1.1299   -0.4494 H   0  0  0  0  0  0  0  0  0  0  0  0 
    0.3601    0.8660    1.2927 H   0  0  0  0  0  0  0  0  0  0  0  0 
   12.3184   -0.7145   -0.3652 H   0  0  0  0  0  0  0  0  0  0  0  0 
   10.4962   -2.2529   -1.0598 H   0  0  0  0  0  0  0  0  0  0  0  0 
   11.7672    1.4925    0.6377 H   0  0  0  0  0  0  0  0  0  0  0  0 
    8.1241   -1.5866   -0.7511 H   0  0  0  0  0  0  0  0  0  0  0  0 
    9.3782    2.1508    0.9404 H   0  0  0  0  0  0  0  0  0  0  0  0 
    2.2125   -1.6583    1.0783 H   0  0  0  0  0  0  0  0  0  0  0  0 
    2.4480    2.2344   -0.7205 H   0  0  0  0  0  0  0  0  0  0  0  0 
    4.6875   -1.8622    0.9322 H   0  0  0  0  0  0  0  0  0  0  0  0 
    4.9083    2.0270   -0.8638 H   0  0  0  0  0  0  0  0  0  0  0  0 
  1 19  1  0  0  0  0 
  2  4  2  0  0  0  0 
  3  5  2  0  0  0  0 
  3  2  1  0  0  0  0 
  4  6  1  0  0  0  0 
  4 22  1  0  0  0  0 
  5 12  1  0  0  0  0 
  6 24  1  0  0  0  0 
  7 25  1  0  0  0  0 
  8 11  1  0  0  0  0 
  9  7  1  0  0  0  0 
  9 27  1  0  0  0  0 
 10  8  2  0  0  0  0 
 10 13  1  0  0  0  0 
 11  1  1  0  0  0  0 
 11  7  2  0  0  0  0 
 12 14  1  0  0  0  0 
 12  6  2  0  0  0  0 
 13  9  2  0  0  0  0 
 14 15  2  0  0  0  0 
 16 13  1  0  0  0  0 
 16 14  1  0  0  0  0 
 17  1  1  0  0  0  0 
 18  1  1  0  0  0  0 
 20  2  1  0  0  0  0 
 21  3  1  0  0  0  0 
 23  5  1  0  0  0  0 
 26  8  1  0  0  0  0 
 28 10  1  0  0  0  0 
M  END 
>  <HBA> 
2 
 
>  <HBD> 
0 
 
>  <TPSA> 
26.3 
 
>  <cid> 
11962 
 
>  <dipole> 
1.74 
 
>  <excitation_energy_1> 
4.229 
 
>  <excitation_energy_2> 
4.642 
 
>  <excitation_energy_3> 
4.861 
 
>  <excitation_energy_4> 
4.95 
 
>  <homo_energy> 
-6.275 
 
>  <homo_lumo_gap> 
4.933 
 
>  <logP> 
3.214 
 
>  <lumo_energy> 
-1.342 
 
>  <melting_point> 
75.38 
 
>  <molecular_refractivity> 
62.81 
 
>  <oscillator_strength_1> 
0.1136 
 
>  <oscillator_strength_2> 
0.0013 
 
>  <oscillator_strength_3> 
0.0198 
 
>  <oscillator_strength_4> 
0.0037 
 
>  <open_babel_can_smiles> 
Cc1ccc(cc1)OC(=O)c1ccccc1 
 
>  <mulliken_charges> 
28 
1   -0.530439 
2   -0.116366 
3   -0.136589 
4   -0.138111 
5   -0.156371 
6   -0.150579 
7   -0.191579 
8   -0.197625 
9   -0.160753 
10   -0.131695 
11   0.185928 
12   0.040397 
13   0.344262 
14   0.587224 
15   -0.471057 
16   -0.544417 
17   0.157012 
18   0.157234 
19   0.16765 
20   0.138298 
21   0.137805 
22   0.13928 
23   0.158869 
24   0.164915 
25   0.1266 
26   0.128364 
27   0.138936 
28   0.152805 
 
>  <lowdin_charges> 
28 
1   -0.442538 
2   -0.137434 
3   -0.155665 
4   -0.157008 
5   -0.13992 
6   -0.128451 
7   -0.162316 
8   -0.160306 
9   -0.170585 
10   -0.164768 
11   -0.002444 
12   -0.046067 
13   0.100173 
14   0.203819 
15   -0.250016 
16   -0.161934 
17   0.158035 
18   0.15929 
19   0.162437 
20   0.160638 
21   0.161253 
22   0.163516 
23   0.174183 
24   0.177262 
25   0.158188 
26   0.158245 
27   0.16716 
28   0.175253 
 
$$$$ 
 
