PCCDB-ID:  47403 
public computational chemistry database (PCCDB) project, http://pccdb.org 
 
 43 42  0  0  0  0  0  0  0  0999 V2000 
    1.2507   -1.0984    2.7783 C   0  0  0  0  0  0  0  0  0  0  0  0 
    6.9110   -1.4173   -2.2598 C   0  0  0  0  0  0  0  0  0  0  0  0 
    4.6762    3.2815    0.5763 C   0  0  0  0  0  0  0  0  0  0  0  0 
    6.9542   -3.3912    1.5692 C   0  0  0  0  0  0  0  0  0  0  0  0 
    5.5232   -3.2261    3.6392 C   0  0  0  0  0  0  0  0  0  0  0  0 
    2.6664   -0.5480    2.5712 C   0  0  0  0  0  0  0  0  0  0  0  0 
    6.5519   -0.7311   -0.9366 C   0  0  0  0  0  0  0  0  0  0  0  0 
    4.2912    1.8213    0.3087 C   0  0  0  0  0  0  0  0  0  0  0  0 
    3.2775   -0.9935    1.2356 C   0  0  0  0  0  0  0  0  0  0  0  0 
    5.1533   -1.1167   -0.4326 C   0  0  0  0  0  0  0  0  0  0  0  0 
    5.0539    0.8468    1.2163 C   0  0  0  0  0  0  0  0  0  0  0  0 
    5.6629   -2.8039    2.1668 C   0  0  0  0  0  0  0  0  0  0  0  0 
    4.7816   -0.6680    1.0148 C   0  0  0  0  0  0  0  0  0  0  0  0 
    5.5785   -1.3364    2.0704 N   0  0  0  0  0  0  0  0  0  0  0  0 
    0.8210   -0.7489    3.7243 H   0  0  0  0  0  0  0  0  0  0  0  0 
    1.2487   -2.1955    2.7979 H   0  0  0  0  0  0  0  0  0  0  0  0 
    0.5768   -0.7836    1.9713 H   0  0  0  0  0  0  0  0  0  0  0  0 
    7.9016   -1.1099   -2.6148 H   0  0  0  0  0  0  0  0  0  0  0  0 
    6.1849   -1.1706   -3.0443 H   0  0  0  0  0  0  0  0  0  0  0  0 
    6.9192   -2.5093   -2.1527 H   0  0  0  0  0  0  0  0  0  0  0  0 
    4.1206    3.9668   -0.0739 H   0  0  0  0  0  0  0  0  0  0  0  0 
    5.7461    3.4484    0.4001 H   0  0  0  0  0  0  0  0  0  0  0  0 
    4.4658    3.5630    1.6154 H   0  0  0  0  0  0  0  0  0  0  0  0 
    6.9930   -4.4785    1.7066 H   0  0  0  0  0  0  0  0  0  0  0  0 
    7.8357   -2.9678    2.0702 H   0  0  0  0  0  0  0  0  0  0  0  0 
    7.0429   -3.1836    0.4988 H   0  0  0  0  0  0  0  0  0  0  0  0 
    5.5558   -4.3174    3.7488 H   0  0  0  0  0  0  0  0  0  0  0  0 
    4.5809   -2.8610    4.0583 H   0  0  0  0  0  0  0  0  0  0  0  0 
    6.3397   -2.8017    4.2369 H   0  0  0  0  0  0  0  0  0  0  0  0 
    3.3194   -0.8693    3.3902 H   0  0  0  0  0  0  0  0  0  0  0  0 
    2.6311    0.5484    2.6194 H   0  0  0  0  0  0  0  0  0  0  0  0 
    6.6128    0.3565   -1.0722 H   0  0  0  0  0  0  0  0  0  0  0  0 
    7.3082   -0.9851   -0.1821 H   0  0  0  0  0  0  0  0  0  0  0  0 
    4.4826    1.5882   -0.7468 H   0  0  0  0  0  0  0  0  0  0  0  0 
    3.2099    1.7038    0.4557 H   0  0  0  0  0  0  0  0  0  0  0  0 
    2.7020   -0.5517    0.4113 H   0  0  0  0  0  0  0  0  0  0  0  0 
    3.1386   -2.0787    1.1302 H   0  0  0  0  0  0  0  0  0  0  0  0 
    5.0404   -2.2086   -0.4884 H   0  0  0  0  0  0  0  0  0  0  0  0 
    4.4099   -0.7144   -1.1346 H   0  0  0  0  0  0  0  0  0  0  0  0 
    4.8434    1.0882    2.2649 H   0  0  0  0  0  0  0  0  0  0  0  0 
    6.1317    1.0232    1.0851 H   0  0  0  0  0  0  0  0  0  0  0  0 
    4.8141   -3.2257    1.6161 H   0  0  0  0  0  0  0  0  0  0  0  0 
    6.5100   -0.9307    2.1139 H   0  0  0  0  0  0  0  0  0  0  0  0 
  1 16  1  0  0  0  0 
  1 15  1  0  0  0  0 
  2 20  1  0  0  0  0 
  2  7  1  0  0  0  0 
  3 23  1  0  0  0  0 
  4 24  1  0  0  0  0 
  4 25  1  0  0  0  0 
  4 12  1  0  0  0  0 
  5 27  1  0  0  0  0 
  5 28  1  0  0  0  0 
  5 29  1  0  0  0  0 
  6 31  1  0  0  0  0 
  6  1  1  0  0  0  0 
  6 30  1  0  0  0  0 
  7 10  1  0  0  0  0 
  7 33  1  0  0  0  0 
  8 35  1  0  0  0  0 
  8  3  1  0  0  0  0 
  8 11  1  0  0  0  0 
  9  6  1  0  0  0  0 
 10 13  1  0  0  0  0 
 11 40  1  0  0  0  0 
 12  5  1  0  0  0  0 
 13 11  1  0  0  0  0 
 13  9  1  0  0  0  0 
 13 14  1  0  0  0  0 
 14 43  1  0  0  0  0 
 14 12  1  0  0  0  0 
 17  1  1  0  0  0  0 
 18  2  1  0  0  0  0 
 19  2  1  0  0  0  0 
 21  3  1  0  0  0  0 
 22  3  1  0  0  0  0 
 26  4  1  0  0  0  0 
 32  7  1  0  0  0  0 
 34  8  1  0  0  0  0 
 36  9  1  0  0  0  0 
 37  9  1  0  0  0  0 
 38 10  1  0  0  0  0 
 39 10  1  0  0  0  0 
 41 11  1  0  0  0  0 
 42 12  1  0  0  0  0 
M  END 
>  <HBA> 
1 
 
>  <HBD> 
1 
 
>  <TPSA> 
12.03 
 
>  <cid> 
47403 
 
>  <dipole> 
0.81 
 
>  <excitation_energy_1> 
5.089 
 
>  <excitation_energy_2> 
5.244 
 
>  <excitation_energy_3> 
5.498 
 
>  <excitation_energy_4> 
5.531 
 
>  <homo_energy> 
-5.497 
 
>  <homo_lumo_gap> 
7.35 
 
>  <logP> 
4.514 
 
>  <lumo_energy> 
1.853 
 
>  <melting_point> 
6.99 
 
>  <molecular_refractivity> 
67.44 
 
>  <oscillator_strength_1> 
0.0268 
 
>  <oscillator_strength_2> 
0.0008 
 
>  <oscillator_strength_3> 
0.0014 
 
>  <oscillator_strength_4> 
0.0002 
 
>  <open_babel_can_smiles> 
CCCC(NC(C)C)(CCC)CCC 
 
>  <mulliken_charges> 
43 
1   -0.444344 
2   -0.446498 
3   -0.442826 
4   -0.461663 
5   -0.423674 
6   -0.258973 
7   -0.261469 
8   -0.261541 
9   -0.262287 
10   -0.259576 
11   -0.285481 
12   0.050803 
13   0.217683 
14   -0.585163 
15   0.13954 
16   0.13859 
17   0.137359 
18   0.141021 
19   0.142217 
20   0.142698 
21   0.141224 
22   0.140735 
23   0.143214 
24   0.14068 
25   0.134138 
26   0.155525 
27   0.128033 
28   0.150844 
29   0.134719 
30   0.157795 
31   0.12983 
32   0.136707 
33   0.126321 
34   0.135368 
35   0.138809 
36   0.12752 
37   0.124565 
38   0.124727 
39   0.126255 
40   0.147051 
41   0.121338 
42   0.131333 
43   0.286853 
 
>  <lowdin_charges> 
43 
1   -0.442762 
2   -0.442051 
3   -0.441652 
4   -0.457055 
5   -0.446912 
6   -0.27669 
7   -0.279302 
8   -0.273202 
9   -0.281166 
10   -0.29267 
11   -0.280886 
12   -0.057429 
13   0.065998 
14   -0.361964 
15   0.147979 
16   0.142038 
17   0.14453 
18   0.148271 
19   0.147537 
20   0.143028 
21   0.150254 
22   0.143946 
23   0.145947 
24   0.147974 
25   0.143901 
26   0.150867 
27   0.139862 
28   0.152464 
29   0.14625 
30   0.151399 
31   0.136087 
32   0.139179 
33   0.136469 
34   0.139131 
35   0.140609 
36   0.141473 
37   0.136651 
38   0.137573 
39   0.141544 
40   0.148466 
41   0.135073 
42   0.139743 
43   0.249497 
 
$$$$ 
 
