PCCDB-ID:  35308 
public computational chemistry database (PCCDB) project, http://pccdb.org 
 
 27 28  0  0  0  0  0  0  0  0999 V2000 
    1.6953    1.0346    0.8772 C   0  0  0  0  0  0  0  0  0  0  0  0 
    7.6655    6.1901    1.8794 C   0  0  0  0  0  0  0  0  0  0  0  0 
    6.3313    5.9388    2.1993 C   0  0  0  0  0  0  0  0  0  0  0  0 
    8.1440    5.8614    0.6080 C   0  0  0  0  0  0  0  0  0  0  0  0 
    5.4807    5.3628    1.2522 C   0  0  0  0  0  0  0  0  0  0  0  0 
    7.2911    5.2892   -0.3346 C   0  0  0  0  0  0  0  0  0  0  0  0 
    5.0232    4.4061   -1.0538 C   0  0  0  0  0  0  0  0  0  0  0  0 
    4.5329   -0.3330   -0.8773 C   0  0  0  0  0  0  0  0  0  0  0  0 
    2.9758    0.9864    0.0962 C   0  0  0  0  0  0  0  0  0  0  0  0 
    5.9481    5.0354   -0.0248 C   0  0  0  0  0  0  0  0  0  0  0  0 
    4.7403    2.0690   -0.9593 C   0  0  0  0  0  0  0  0  0  0  0  0 
    5.4493    3.0447   -1.3738 N   0  0  0  0  0  0  0  0  0  0  0  0 
    3.4233   -0.2991   -0.1984 N   0  0  0  0  0  0  0  0  0  0  0  0 
    5.2055    0.7635   -1.2710 N   0  0  0  0  0  0  0  0  0  0  0  0 
    3.5523    2.1074   -0.2337 N   0  0  0  0  0  0  0  0  0  0  0  0 
    1.8180    0.4970    1.8247 H   0  0  0  0  0  0  0  0  0  0  0  0 
    0.9028    0.5183    0.3230 H   0  0  0  0  0  0  0  0  0  0  0  0 
    1.4015    2.0671    1.0708 H   0  0  0  0  0  0  0  0  0  0  0  0 
    8.3293    6.6390    2.6139 H   0  0  0  0  0  0  0  0  0  0  0  0 
    5.9501    6.1899    3.1860 H   0  0  0  0  0  0  0  0  0  0  0  0 
    9.1827    6.0547    0.3511 H   0  0  0  0  0  0  0  0  0  0  0  0 
    4.4424    5.1623    1.5063 H   0  0  0  0  0  0  0  0  0  0  0  0 
    7.6659    5.0288   -1.3214 H   0  0  0  0  0  0  0  0  0  0  0  0 
    5.0757    4.9858   -1.9853 H   0  0  0  0  0  0  0  0  0  0  0  0 
    3.9894    4.4463   -0.6922 H   0  0  0  0  0  0  0  0  0  0  0  0 
    4.9658   -1.2925   -1.1573 H   0  0  0  0  0  0  0  0  0  0  0  0 
    6.0719    0.7082   -1.7935 H   0  0  0  0  0  0  0  0  0  0  0  0 
  1 18  1  0  0  0  0 
  1 16  1  0  0  0  0 
  2  3  1  0  0  0  0 
  2 19  1  0  0  0  0 
  3 20  1  0  0  0  0 
  4  2  2  0  0  0  0 
  5 22  1  0  0  0  0 
  5  3  2  0  0  0  0 
  6 10  2  0  0  0  0 
  6  4  1  0  0  0  0 
  7 25  1  0  0  0  0 
  7 10  1  0  0  0  0 
  8 13  1  0  0  0  0 
  9  1  1  0  0  0  0 
 10  5  1  0  0  0  0 
 11 15  2  0  0  0  0 
 12  7  1  0  0  0  0 
 12 11  1  0  0  0  0 
 13  9  2  0  0  0  0 
 14 11  1  0  0  0  0 
 14  8  1  0  0  0  0 
 15  9  1  0  0  0  0 
 17  1  1  0  0  0  0 
 21  4  1  0  0  0  0 
 23  6  1  0  0  0  0 
 24  7  1  0  0  0  0 
 26  8  1  0  0  0  0 
 27 14  1  0  0  0  0 
M  RAD  1  12   2 
M  END 
>  <HBA> 
4 
 
>  <HBD> 
1 
 
>  <TPSA> 
50.7 
 
>  <cid> 
35308 
 
>  <dipole> 
2.5 
 
>  <excitation_energy_1> 
3.783 
 
>  <excitation_energy_2> 
4.126 
 
>  <excitation_energy_3> 
4.373 
 
>  <excitation_energy_4> 
4.491 
 
>  <homo_energy> 
-6.016 
 
>  <homo_lumo_gap> 
4.612 
 
>  <logP> 
1.865 
 
>  <lumo_energy> 
-1.404 
 
>  <melting_point> 
119.62 
 
>  <molecular_refractivity> 
58.59 
 
>  <oscillator_strength_1> 
0.0184 
 
>  <oscillator_strength_2> 
0.0024 
 
>  <oscillator_strength_3> 
0.001 
 
>  <oscillator_strength_4> 
0.0008 
 
>  <open_babel_can_smiles> 
CC1=NCNC(=N1)[N]Cc1ccccc1 
 
>  <mulliken_charges> 
27 
1   -0.499933 
2   -0.13113 
3   -0.129084 
4   -0.130941 
5   -0.183597 
6   -0.165378 
7   -0.239694 
8   0.267428 
9   0.422775 
10   0.169876 
11   0.6588 
12   -0.502068 
13   -0.456721 
14   -0.586139 
15   -0.482502 
16   0.177003 
17   0.176283 
18   0.175552 
19   0.123267 
20   0.123755 
21   0.123425 
22   0.128756 
23   0.128972 
24   0.144978 
25   0.158941 
26   0.175351 
27   0.352026 
 
>  <lowdin_charges> 
27 
1   -0.444827 
2   -0.164174 
3   -0.158416 
4   -0.157123 
5   -0.164735 
6   -0.156953 
7   -0.196732 
8   0.007095 
9   0.125437 
10   -0.003375 
11   0.113026 
12   -0.247334 
13   -0.227197 
14   -0.19245 
15   -0.203741 
16   0.174561 
17   0.175289 
18   0.169417 
19   0.155961 
20   0.154269 
21   0.153103 
22   0.155849 
23   0.15793 
24   0.149611 
25   0.147796 
26   0.172019 
27   0.305694 
 
$$$$ 
 
