PCCDB-ID:  8186 
public computational chemistry database (PCCDB) project, http://pccdb.org 
 
 34 33  0  0  0  0  0  0  0  0999 V2000 
    4.2843    2.2886   -0.0591 C   0  0  0  0  0  0  0  0  0  0  0  0 
    3.3496    1.2997   -0.7659 C   0  0  0  0  0  0  0  0  0  0  0  0 
    3.5437    1.2255   -2.2912 C   0  0  0  0  0  0  0  0  0  0  0  0 
    4.9075    0.6979   -2.7711 C   0  0  0  0  0  0  0  0  0  0  0  0 
    5.1885   -0.7680   -2.4112 C   0  0  0  0  0  0  0  0  0  0  0  0 
    6.5217   -1.2863   -2.9674 C   0  0  0  0  0  0  0  0  0  0  0  0 
    6.7909   -2.7555   -2.6108 C   0  0  0  0  0  0  0  0  0  0  0  0 
    8.0908   -3.3349   -3.1924 C   0  0  0  0  0  0  0  0  0  0  0  0 
    9.3721   -2.7126   -2.6158 C   0  0  0  0  0  0  0  0  0  0  0  0 
   10.6557   -3.3763   -3.1248 C   0  0  0  0  0  0  0  0  0  0  0  0 
   11.0085   -3.0705   -4.5637 C   0  0  0  0  0  0  0  0  0  0  0  0 
   10.4030   -2.3080   -5.2852 O   0  0  0  0  0  0  0  0  0  0  0  0 
    4.0578    2.3489    1.0117 H   0  0  0  0  0  0  0  0  0  0  0  0 
    4.1812    3.2976   -0.4782 H   0  0  0  0  0  0  0  0  0  0  0  0 
    5.3368    1.9980   -0.1551 H   0  0  0  0  0  0  0  0  0  0  0  0 
    2.3091    1.5885   -0.5651 H   0  0  0  0  0  0  0  0  0  0  0  0 
    3.4732    0.3016   -0.3247 H   0  0  0  0  0  0  0  0  0  0  0  0 
    3.3881    2.2296   -2.7118 H   0  0  0  0  0  0  0  0  0  0  0  0 
    2.7522    0.5922   -2.7172 H   0  0  0  0  0  0  0  0  0  0  0  0 
    5.7145    1.3302   -2.3749 H   0  0  0  0  0  0  0  0  0  0  0  0 
    4.9550    0.8065   -3.8640 H   0  0  0  0  0  0  0  0  0  0  0  0 
    4.3683   -1.3962   -2.7909 H   0  0  0  0  0  0  0  0  0  0  0  0 
    5.1853   -0.8945   -1.3193 H   0  0  0  0  0  0  0  0  0  0  0  0 
    7.3364   -0.6521   -2.5912 H   0  0  0  0  0  0  0  0  0  0  0  0 
    6.5308   -1.1730   -4.0614 H   0  0  0  0  0  0  0  0  0  0  0  0 
    5.9476   -3.3633   -2.9685 H   0  0  0  0  0  0  0  0  0  0  0  0 
    6.8010   -2.8681   -1.5159 H   0  0  0  0  0  0  0  0  0  0  0  0 
    8.0909   -3.2131   -4.2826 H   0  0  0  0  0  0  0  0  0  0  0  0 
    8.1099   -4.4174   -2.9975 H   0  0  0  0  0  0  0  0  0  0  0  0 
    9.3484   -2.7901   -1.5202 H   0  0  0  0  0  0  0  0  0  0  0  0 
    9.4130   -1.6445   -2.8570 H   0  0  0  0  0  0  0  0  0  0  0  0 
   10.6150   -4.4721   -3.0192 H   0  0  0  0  0  0  0  0  0  0  0  0 
   11.5282   -3.0702   -2.5247 H   0  0  0  0  0  0  0  0  0  0  0  0 
   11.9145   -3.5998   -4.9402 H   0  0  0  0  0  0  0  0  0  0  0  0 
  1 13  1  0  0  0  0 
  2 16  1  0  0  0  0 
  2 17  1  0  0  0  0 
  2  1  1  0  0  0  0 
  3  2  1  0  0  0  0 
  4  5  1  0  0  0  0 
  4 20  1  0  0  0  0 
  4  3  1  0  0  0  0 
  5 23  1  0  0  0  0 
  6  7  1  0  0  0  0 
  6 24  1  0  0  0  0 
  6  5  1  0  0  0  0 
  7 27  1  0  0  0  0 
  8 29  1  0  0  0  0 
  8  9  1  0  0  0  0 
  8  7  1  0  0  0  0 
  9 30  1  0  0  0  0 
 10 32  1  0  0  0  0 
 10  9  1  0  0  0  0 
 10 33  1  0  0  0  0 
 11 10  1  0  0  0  0 
 12 11  2  0  0  0  0 
 14  1  1  0  0  0  0 
 15  1  1  0  0  0  0 
 18  3  1  0  0  0  0 
 19  3  1  0  0  0  0 
 21  4  1  0  0  0  0 
 22  5  1  0  0  0  0 
 25  6  1  0  0  0  0 
 26  7  1  0  0  0  0 
 28  8  1  0  0  0  0 
 31  9  1  0  0  0  0 
 34 11  1  0  0  0  0 
M  END 
>  <HBA> 
1 
 
>  <HBD> 
0 
 
>  <TPSA> 
17.07 
 
>  <cid> 
8186 
 
>  <dipole> 
2.35 
 
>  <excitation_energy_1> 
4.32 
 
>  <excitation_energy_2> 
6.396 
 
>  <excitation_energy_3> 
6.68 
 
>  <excitation_energy_4> 
6.927 
 
>  <homo_energy> 
-6.871 
 
>  <homo_lumo_gap> 
6.332 
 
>  <logP> 
3.716 
 
>  <lumo_energy> 
-0.539 
 
>  <melting_point> 
1.84 
 
>  <molecular_refractivity> 
55.19 
 
>  <oscillator_strength_1> 
0.0002 
 
>  <oscillator_strength_2> 
0.0268 
 
>  <oscillator_strength_3> 
0.0002 
 
>  <oscillator_strength_4> 
0.0187 
 
>  <open_babel_can_smiles> 
CCCCCCCCCCC=O 
 
>  <mulliken_charges> 
34 
1   -0.443093 
2   -0.250191 
3   -0.251285 
4   -0.256737 
5   -0.254069 
6   -0.254067 
7   -0.256795 
8   -0.260937 
9   -0.252195 
10   -0.350903 
11   0.256171 
12   -0.383181 
13   0.140563 
14   0.140597 
15   0.14482 
16   0.12973 
17   0.133925 
18   0.125409 
19   0.125596 
20   0.130357 
21   0.128833 
22   0.125112 
23   0.129787 
24   0.131085 
25   0.134403 
26   0.127927 
27   0.122818 
28   0.154263 
29   0.119796 
30   0.129732 
31   0.157518 
32   0.158359 
33   0.163032 
34   0.103621 
 
>  <lowdin_charges> 
34 
1   -0.443465 
2   -0.274306 
3   -0.276847 
4   -0.277028 
5   -0.275146 
6   -0.274785 
7   -0.273033 
8   -0.274687 
9   -0.27183 
10   -0.31271 
11   0.057418 
12   -0.221704 
13   0.147311 
14   0.145005 
15   0.14505 
16   0.140247 
17   0.138709 
18   0.138684 
19   0.140205 
20   0.139372 
21   0.139284 
22   0.137278 
23   0.135458 
24   0.139626 
25   0.139105 
26   0.141625 
27   0.132833 
28   0.148646 
29   0.13421 
30   0.140666 
31   0.152103 
32   0.159682 
33   0.167719 
34   0.115304 
 
$$$$ 
 
