PCCDB-ID:  15391 
public computational chemistry database (PCCDB) project, http://pccdb.org 
 
 17 16  0  0  0  0  0  0  0  0999 V2000 
    0.9976   -0.2640   -0.1242 C   0  0  0  0  0  0  0  0  0  0  0  0 
    2.7471    0.2047    1.6657 C   0  0  0  0  0  0  0  0  0  0  0  0 
    2.4632    0.0094    0.1803 C   0  0  0  0  0  0  0  0  0  0  0  0 
    5.6628   -1.3237    0.4734 O   0  0  0  0  0  0  0  0  0  0  0  0 
    4.9144   -2.3664   -1.6464 O   0  0  0  0  0  0  0  0  0  0  0  0 
    5.0635    0.2804   -1.4586 O   0  0  0  0  0  0  0  0  0  0  0  0 
    3.2061   -1.1566   -0.3090 O   0  0  0  0  0  0  0  0  0  0  0  0 
    4.7333   -0.9979   -0.8025 P   0  0  0  0  0  0  0  0  0  0  0  0 
    0.3824    0.5829    0.1987 H   0  0  0  0  0  0  0  0  0  0  0  0 
    0.6537   -1.1614    0.4022 H   0  0  0  0  0  0  0  0  0  0  0  0 
    0.8456   -0.4124   -1.1977 H   0  0  0  0  0  0  0  0  0  0  0  0 
    2.1921    1.0699    2.0453 H   0  0  0  0  0  0  0  0  0  0  0  0 
    3.8122    0.3785    1.8461 H   0  0  0  0  0  0  0  0  0  0  0  0 
    2.4368   -0.6794    2.2344 H   0  0  0  0  0  0  0  0  0  0  0  0 
    2.8116    0.8780   -0.3877 H   0  0  0  0  0  0  0  0  0  0  0  0 
    5.4501   -2.1835    0.8733 H   0  0  0  0  0  0  0  0  0  0  0  0 
    4.4181   -2.3387   -2.4811 H   0  0  0  0  0  0  0  0  0  0  0  0 
  1  3  1  0  0  0  0 
  1  9  1  0  0  0  0 
  1 10  1  0  0  0  0 
  2 13  1  0  0  0  0 
  2 12  1  0  0  0  0 
  2 14  1  0  0  0  0 
  3  2  1  0  0  0  0 
  4 16  1  0  0  0  0 
  5  8  1  0  0  0  0 
  6  8  2  0  0  0  0 
  7  3  1  0  0  0  0 
  8  7  1  0  0  0  0 
  8  4  1  0  0  0  0 
 11  1  1  0  0  0  0 
 15  3  1  0  0  0  0 
 17  5  1  0  0  0  0 
M  END 
>  <HBA> 
4 
 
>  <HBD> 
2 
 
>  <TPSA> 
76.57 
 
>  <cid> 
15391 
 
>  <dipole> 
3.85 
 
>  <excitation_energy_1> 
6.76 
 
>  <excitation_energy_2> 
6.867 
 
>  <excitation_energy_3> 
7.362 
 
>  <excitation_energy_4> 
7.69 
 
>  <homo_energy> 
-7.905 
 
>  <homo_lumo_gap> 
8.721 
 
>  <logP> 
0.504 
 
>  <lumo_energy> 
0.816 
 
>  <melting_point> 
55.16 
 
>  <molecular_refractivity> 
28.61 
 
>  <oscillator_strength_1> 
0.0089 
 
>  <oscillator_strength_2> 
0.0086 
 
>  <oscillator_strength_3> 
0.0398 
 
>  <oscillator_strength_4> 
0.0021 
 
>  <open_babel_can_smiles> 
CC(OP(=O)(O)O)C 
 
>  <mulliken_charges> 
17 
1   -0.447393 
2   -0.460763 
3   0.120601 
4   -0.633789 
5   -0.639414 
6   -0.541666 
7   -0.545229 
8   1.15126 
9   0.151483 
10   0.155591 
11   0.159276 
12   0.152537 
13   0.176872 
14   0.150352 
15   0.173289 
16   0.436327 
17   0.440665 
 
>  <lowdin_charges> 
17 
1   -0.446283 
2   -0.455371 
3   0.018045 
4   -0.555955 
5   -0.56678 
6   -0.575955 
7   -0.415678 
8   1.112262 
9   0.159306 
10   0.156942 
11   0.158138 
12   0.159983 
13   0.16567 
14   0.154389 
15   0.161848 
16   0.38391 
17   0.385529 
 
$$$$ 
 
