PCCDB-ID:  21755 
public computational chemistry database (PCCDB) project, http://pccdb.org 
 
 22 22  0  0  0  0  0  0  0  0999 V2000 
    0.9645   -0.1641    0.1455 C   0  0  0  0  0  0  0  0  0  0  0  0 
    2.3736    2.4371    0.0595 C   0  0  0  0  0  0  0  0  0  0  0  0 
    3.2122   -1.2815   -0.1234 C   0  0  0  0  0  0  0  0  0  0  0  0 
    4.5959   -1.2553   -0.2665 C   0  0  0  0  0  0  0  0  0  0  0  0 
    4.5292    1.1513   -0.1742 C   0  0  0  0  0  0  0  0  0  0  0  0 
    2.4651   -0.1028   -0.0056 C   0  0  0  0  0  0  0  0  0  0  0  0 
    3.1382    1.1379   -0.0393 C   0  0  0  0  0  0  0  0  0  0  0  0 
    5.2722   -0.0323   -0.2809 C   0  0  0  0  0  0  0  0  0  0  0  0 
    6.7649   -0.0635   -0.4290 C   0  0  0  0  0  0  0  0  0  0  0  0 
    7.4381    1.0916   -0.0913 N   0  0  0  0  0  0  0  0  0  0  0  0 
    7.3577   -1.0491   -0.8506 O   0  0  0  0  0  0  0  0  0  0  0  0 
    0.6079   -1.1984    0.1368 H   0  0  0  0  0  0  0  0  0  0  0  0 
    0.4535    0.3727   -0.6643 H   0  0  0  0  0  0  0  0  0  0  0  0 
    0.6318    0.2961    1.0853 H   0  0  0  0  0  0  0  0  0  0  0  0 
    3.0494    3.2970    0.0241 H   0  0  0  0  0  0  0  0  0  0  0  0 
    1.7998    2.5011    0.9930 H   0  0  0  0  0  0  0  0  0  0  0  0 
    1.6521    2.5474   -0.7605 H   0  0  0  0  0  0  0  0  0  0  0  0 
    2.6946   -2.2378   -0.1045 H   0  0  0  0  0  0  0  0  0  0  0  0 
    5.1711   -2.1695   -0.3686 H   0  0  0  0  0  0  0  0  0  0  0  0 
    5.0322    2.1135   -0.2341 H   0  0  0  0  0  0  0  0  0  0  0  0 
    7.0306    1.7341    0.5730 H   0  0  0  0  0  0  0  0  0  0  0  0 
    8.4454    1.0008   -0.0611 H   0  0  0  0  0  0  0  0  0  0  0  0 
  1 14  1  0  0  0  0 
  2 16  1  0  0  0  0 
  3 18  1  0  0  0  0 
  3  6  2  0  0  0  0 
  4  3  1  0  0  0  0 
  5  7  2  0  0  0  0 
  6  1  1  0  0  0  0 
  7  6  1  0  0  0  0 
  7  2  1  0  0  0  0 
  8  4  2  0  0  0  0 
  8  5  1  0  0  0  0 
  9  8  1  0  0  0  0 
  9 10  1  0  0  0  0 
 10 22  1  0  0  0  0 
 10 21  1  0  0  0  0 
 11  9  2  0  0  0  0 
 12  1  1  0  0  0  0 
 13  1  1  0  0  0  0 
 15  2  1  0  0  0  0 
 17  2  1  0  0  0  0 
 19  4  1  0  0  0  0 
 20  5  1  0  0  0  0 
M  END 
>  <HBA> 
2 
 
>  <HBD> 
1 
 
>  <TPSA> 
43.09 
 
>  <cid> 
21755 
 
>  <dipole> 
4.05 
 
>  <excitation_energy_1> 
4.565 
 
>  <excitation_energy_2> 
4.874 
 
>  <excitation_energy_3> 
5.264 
 
>  <excitation_energy_4> 
5.766 
 
>  <homo_energy> 
-6.455 
 
>  <homo_lumo_gap> 
5.614 
 
>  <logP> 
2.103 
 
>  <lumo_energy> 
-0.841 
 
>  <melting_point> 
102.8 
 
>  <molecular_refractivity> 
44.47 
 
>  <oscillator_strength_1> 
0.0062 
 
>  <oscillator_strength_2> 
0.0241 
 
>  <oscillator_strength_3> 
0.2118 
 
>  <oscillator_strength_4> 
0.028 
 
>  <open_babel_can_smiles> 
NC(=O)c1ccc(c(c1)C)C 
 
>  <mulliken_charges> 
22 
1   -0.53404 
2   -0.533641 
3   -0.189637 
4   -0.162259 
5   -0.250516 
6   0.136545 
7   0.133634 
8   0.088494 
9   0.523697 
10   -0.751963 
11   -0.503518 
12   0.159131 
13   0.16325 
14   0.162065 
15   0.154983 
16   0.160782 
17   0.163611 
18   0.127776 
19   0.161044 
20   0.122939 
21   0.329691 
22   0.337931 
 
>  <lowdin_charges> 
22 
1   -0.442192 
2   -0.442112 
3   -0.165095 
4   -0.13619 
5   -0.170523 
6   0.003725 
7   -0.008538 
8   -0.047829 
9   0.167139 
10   -0.472926 
11   -0.302933 
12   0.158527 
13   0.161987 
14   0.160423 
15   0.157512 
16   0.1593 
17   0.161052 
18   0.156908 
19   0.176869 
20   0.153637 
21   0.284192 
22   0.287065 
 
$$$$ 
 
