PCCDB-ID:  54874 
public computational chemistry database (PCCDB) project, http://pccdb.org 
 
 25 26  0  0  0  0  0  0  0  0999 V2000 
    2.6102   -2.4375    0.4186 C   0  0  0  0  0  0  0  0  0  0  0  0 
    4.1313   -0.6908    3.9556 C   0  0  0  0  0  0  0  0  0  0  0  0 
    4.4122    0.6731    3.9589 C   0  0  0  0  0  0  0  0  0  0  0  0 
    3.6245   -1.3166    2.8151 C   0  0  0  0  0  0  0  0  0  0  0  0 
    4.8525    4.9273    0.9192 C   0  0  0  0  0  0  0  0  0  0  0  0 
    3.8589    5.3976    1.9795 C   0  0  0  0  0  0  0  0  0  0  0  0 
    3.6805    0.8165    1.6607 C   0  0  0  0  0  0  0  0  0  0  0  0 
    4.1858    1.4361    2.8038 C   0  0  0  0  0  0  0  0  0  0  0  0 
    3.3982   -0.5540    1.6610 C   0  0  0  0  0  0  0  0  0  0  0  0 
    4.4850    2.9189    2.8305 C   0  0  0  0  0  0  0  0  0  0  0  0 
    2.9065   -1.0528    0.4882 O   0  0  0  0  0  0  0  0  0  0  0  0 
    5.7545    3.4536    1.5586 S   0  0  0  0  0  0  0  0  0  0  0  0 
    2.9566    3.9245    2.5819 S   0  0  0  0  0  0  0  0  0  0  0  0 
    2.2396   -2.6135   -0.5930 H   0  0  0  0  0  0  0  0  0  0  0  0 
    1.8348   -2.7231    1.1421 H   0  0  0  0  0  0  0  0  0  0  0  0 
    3.5044   -3.0524    0.5878 H   0  0  0  0  0  0  0  0  0  0  0  0 
    4.3103   -1.2817    4.8499 H   0  0  0  0  0  0  0  0  0  0  0  0 
    4.8057    1.1479    4.8536 H   0  0  0  0  0  0  0  0  0  0  0  0 
    3.4162   -2.3801    2.8327 H   0  0  0  0  0  0  0  0  0  0  0  0 
    5.5951    5.7020    0.7011 H   0  0  0  0  0  0  0  0  0  0  0  0 
    4.3327    4.6649   -0.0060 H   0  0  0  0  0  0  0  0  0  0  0  0 
    3.1205    6.0881    1.5583 H   0  0  0  0  0  0  0  0  0  0  0  0 
    4.3719    5.8953    2.8085 H   0  0  0  0  0  0  0  0  0  0  0  0 
    3.5035    1.3842    0.7534 H   0  0  0  0  0  0  0  0  0  0  0  0 
    4.9045    3.1753    3.8055 H   0  0  0  0  0  0  0  0  0  0  0  0 
  1 11  1  0  0  0  0 
  1 16  1  0  0  0  0 
  1 15  1  0  0  0  0 
  2  3  1  0  0  0  0 
  2 17  1  0  0  0  0 
  3 18  1  0  0  0  0 
  4 19  1  0  0  0  0 
  4  2  2  0  0  0  0 
  5 12  1  0  0  0  0 
  5  6  1  0  0  0  0 
  6 13  1  0  0  0  0 
  6 23  1  0  0  0  0 
  7  9  2  0  0  0  0 
  7  8  1  0  0  0  0 
  8 10  1  0  0  0  0 
  8  3  2  0  0  0  0 
  9  4  1  0  0  0  0 
 10 25  1  0  0  0  0 
 11  9  1  0  0  0  0 
 12 10  1  0  0  0  0 
 13 10  1  0  0  0  0 
 14  1  1  0  0  0  0 
 20  5  1  0  0  0  0 
 21  5  1  0  0  0  0 
 22  6  1  0  0  0  0 
 24  7  1  0  0  0  0 
M  END 
>  <HBA> 
3 
 
>  <HBD> 
0 
 
>  <TPSA> 
59.83 
 
>  <cid> 
54874 
 
>  <dipole> 
0.56 
 
>  <excitation_energy_1> 
4.605 
 
>  <excitation_energy_2> 
4.639 
 
>  <excitation_energy_3> 
4.697 
 
>  <excitation_energy_4> 
4.79 
 
>  <homo_energy> 
-5.894 
 
>  <homo_lumo_gap> 
5.508 
 
>  <logP> 
3.174 
 
>  <lumo_energy> 
-0.386 
 
>  <melting_point> 
52.45 
 
>  <molecular_refractivity> 
60.58 
 
>  <oscillator_strength_1> 
0.0041 
 
>  <oscillator_strength_2> 
0.0008 
 
>  <oscillator_strength_3> 
0.0193 
 
>  <oscillator_strength_4> 
0.0222 
 
>  <open_babel_can_smiles> 
COc1cccc(c1)C1SCCS1 
 
>  <mulliken_charges> 
25 
1   -0.214777 
2   -0.134545 
3   -0.178891 
4   -0.192059 
5   -0.413313 
6   -0.418247 
7   -0.192735 
8   0.161154 
9   0.374667 
10   -0.49556 
11   -0.505767 
12   0.113932 
13   0.135312 
14   0.170287 
15   0.151417 
16   0.151647 
17   0.131519 
18   0.126645 
19   0.13214 
20   0.181662 
21   0.190112 
22   0.183597 
23   0.18545 
24   0.155407 
25   0.200943 
 
>  <lowdin_charges> 
25 
1   -0.277553 
2   -0.146578 
3   -0.183585 
4   -0.208229 
5   -0.377314 
6   -0.380207 
7   -0.169501 
8   -0.009118 
9   0.103195 
10   -0.310926 
11   -0.198248 
12   0.084724 
13   0.11924 
14   0.162424 
15   0.145558 
16   0.145487 
17   0.159675 
18   0.157588 
19   0.161047 
20   0.171336 
21   0.165437 
22   0.175429 
23   0.164113 
24   0.177859 
25   0.168145 
 
$$$$ 
 
