PCCDB-ID:  69193 
public computational chemistry database (PCCDB) project, http://pccdb.org 
 
 28 29  0  0  0  0  0  0  0  0999 V2000 
    0.5976    1.8931    0.8634 C   0  0  0  0  0  0  0  0  0  0  0  0 
    5.7481   -6.0504   -0.1449 C   0  0  0  0  0  0  0  0  0  0  0  0 
    6.2966   -4.8929    0.4126 C   0  0  0  0  0  0  0  0  0  0  0  0 
    4.5322   -5.9893   -0.8312 C   0  0  0  0  0  0  0  0  0  0  0  0 
    4.1450    2.3304   -0.4870 C   0  0  0  0  0  0  0  0  0  0  0  0 
    2.8539    2.6160   -0.0410 C   0  0  0  0  0  0  0  0  0  0  0  0 
    5.6339   -3.6732    0.2866 C   0  0  0  0  0  0  0  0  0  0  0  0 
    3.8659   -4.7736   -0.9585 C   0  0  0  0  0  0  0  0  0  0  0  0 
    4.6117    1.0171   -0.4988 C   0  0  0  0  0  0  0  0  0  0  0  0 
    2.4786    0.2751    0.3988 C   0  0  0  0  0  0  0  0  0  0  0  0 
    2.0060    1.5937    0.4034 C   0  0  0  0  0  0  0  0  0  0  0  0 
    4.4131   -3.6096   -0.4002 C   0  0  0  0  0  0  0  0  0  0  0  0 
    3.7661    0.0027   -0.0558 C   0  0  0  0  0  0  0  0  0  0  0  0 
    3.6507   -2.3416   -0.5687 C   0  0  0  0  0  0  0  0  0  0  0  0 
    2.5836   -2.2485   -1.1329 O   0  0  0  0  0  0  0  0  0  0  0  0 
    4.3122   -1.2828   -0.0044 O   0  0  0  0  0  0  0  0  0  0  0  0 
    0.4726    2.9541    1.1022 H   0  0  0  0  0  0  0  0  0  0  0  0 
    0.3340    1.3121    1.7542 H   0  0  0  0  0  0  0  0  0  0  0  0 
   -0.1344    1.6411    0.0852 H   0  0  0  0  0  0  0  0  0  0  0  0 
    6.2682   -6.9995   -0.0456 H   0  0  0  0  0  0  0  0  0  0  0  0 
    7.2417   -4.9406    0.9463 H   0  0  0  0  0  0  0  0  0  0  0  0 
    4.1057   -6.8891   -1.2656 H   0  0  0  0  0  0  0  0  0  0  0  0 
    4.7937    3.1344   -0.8238 H   0  0  0  0  0  0  0  0  0  0  0  0 
    2.5001    3.6440   -0.0347 H   0  0  0  0  0  0  0  0  0  0  0  0 
    6.0547   -2.7715    0.7164 H   0  0  0  0  0  0  0  0  0  0  0  0 
    2.9202   -4.7020   -1.4856 H   0  0  0  0  0  0  0  0  0  0  0  0 
    5.6128    0.7692   -0.8363 H   0  0  0  0  0  0  0  0  0  0  0  0 
    1.8440   -0.5356    0.7386 H   0  0  0  0  0  0  0  0  0  0  0  0 
  1 17  1  0  0  0  0 
  1 18  1  0  0  0  0 
  2 20  1  0  0  0  0 
  2  3  2  0  0  0  0 
  3 21  1  0  0  0  0 
  4  2  1  0  0  0  0 
  5  6  1  0  0  0  0 
  6 24  1  0  0  0  0 
  6 11  2  0  0  0  0 
  7  3  1  0  0  0  0 
  7 25  1  0  0  0  0 
  8  4  2  0  0  0  0 
  8 12  1  0  0  0  0 
  9  5  2  0  0  0  0 
  9 13  1  0  0  0  0 
 10 11  1  0  0  0  0 
 10 28  1  0  0  0  0 
 11  1  1  0  0  0  0 
 12  7  2  0  0  0  0 
 13 16  1  0  0  0  0 
 13 10  2  0  0  0  0 
 14 12  1  0  0  0  0 
 14 16  1  0  0  0  0 
 15 14  2  0  0  0  0 
 19  1  1  0  0  0  0 
 22  4  1  0  0  0  0 
 23  5  1  0  0  0  0 
 26  8  1  0  0  0  0 
 27  9  1  0  0  0  0 
M  END 
>  <HBA> 
2 
 
>  <HBD> 
0 
 
>  <TPSA> 
26.3 
 
>  <cid> 
69193 
 
>  <dipole> 
1.65 
 
>  <excitation_energy_1> 
4.35 
 
>  <excitation_energy_2> 
4.537 
 
>  <excitation_energy_3> 
4.863 
 
>  <excitation_energy_4> 
4.897 
 
>  <homo_energy> 
-6.414 
 
>  <homo_lumo_gap> 
5.07 
 
>  <logP> 
3.214 
 
>  <lumo_energy> 
-1.344 
 
>  <melting_point> 
75.38 
 
>  <molecular_refractivity> 
62.81 
 
>  <oscillator_strength_1> 
0.0812 
 
>  <oscillator_strength_2> 
0.0191 
 
>  <oscillator_strength_3> 
0.0209 
 
>  <oscillator_strength_4> 
0.0033 
 
>  <open_babel_can_smiles> 
Cc1cccc(c1)OC(=O)c1ccccc1 
 
>  <mulliken_charges> 
28 
1   -0.528175 
2   -0.116244 
3   -0.136537 
4   -0.138137 
5   -0.138229 
6   -0.173613 
7   -0.156822 
8   -0.150919 
9   -0.165582 
10   -0.185671 
11   0.159655 
12   0.041207 
13   0.35244 
14   0.587124 
15   -0.470471 
16   -0.546087 
17   0.155241 
18   0.160382 
19   0.171899 
20   0.13834 
21   0.13794 
22   0.1393 
23   0.133234 
24   0.123175 
25   0.15939 
26   0.164861 
27   0.138243 
28   0.144054 
 
>  <lowdin_charges> 
28 
1   -0.441309 
2   -0.138864 
3   -0.15539 
4   -0.156366 
5   -0.150073 
6   -0.172791 
7   -0.139044 
8   -0.128088 
9   -0.176604 
10   -0.176391 
11   0.009726 
12   -0.046512 
13   0.106235 
14   0.203721 
15   -0.249259 
16   -0.162383 
17   0.155886 
18   0.160614 
19   0.166197 
20   0.161819 
21   0.161293 
22   0.16297 
23   0.16122 
24   0.154975 
25   0.173844 
26   0.177126 
27   0.165939 
28   0.171508 
 
$$$$ 
 
