PCCDB-ID:  38695 
public computational chemistry database (PCCDB) project, http://pccdb.org 
 
 35 36  0  0  0  0  0  0  0  0999 V2000 
    0.6444   -1.4951    3.5068 C   0  0  0  0  0  0  0  0  0  0  0  0 
    7.2231   -1.7804   -4.0787 C   0  0  0  0  0  0  0  0  0  0  0  0 
    0.0196   -0.9089    2.4038 C   0  0  0  0  0  0  0  0  0  0  0  0 
    1.9897   -1.8603    3.4290 C   0  0  0  0  0  0  0  0  0  0  0  0 
    7.1517   -0.3004   -3.6711 C   0  0  0  0  0  0  0  0  0  0  0  0 
    6.1312   -2.5933   -3.3655 C   0  0  0  0  0  0  0  0  0  0  0  0 
    0.7380   -0.6927    1.2309 C   0  0  0  0  0  0  0  0  0  0  0  0 
    2.7175   -1.6273    2.2625 C   0  0  0  0  0  0  0  0  0  0  0  0 
    7.1790   -0.1633   -2.1393 C   0  0  0  0  0  0  0  0  0  0  0  0 
    6.1866   -2.3702   -1.8443 C   0  0  0  0  0  0  0  0  0  0  0  0 
    4.7998   -0.3706   -1.4983 C   0  0  0  0  0  0  0  0  0  0  0  0 
    2.0957   -1.0378    1.1517 C   0  0  0  0  0  0  0  0  0  0  0  0 
    2.7491   -0.8177   -0.1809 C   0  0  0  0  0  0  0  0  0  0  0  0 
    6.1430   -0.9486   -1.4516 N   0  0  0  0  0  0  0  0  0  0  0  0 
    4.1247   -0.7537   -0.2647 N   0  0  0  0  0  0  0  0  0  0  0  0 
    2.0818   -0.7472   -1.2138 O   0  0  0  0  0  0  0  0  0  0  0  0 
    4.8652   -0.3376    0.8677 O   0  0  0  0  0  0  0  0  0  0  0  0 
    0.0845   -1.6704    4.4219 H   0  0  0  0  0  0  0  0  0  0  0  0 
    8.2107   -2.1810   -3.8044 H   0  0  0  0  0  0  0  0  0  0  0  0 
    7.1338   -1.8864   -5.1666 H   0  0  0  0  0  0  0  0  0  0  0  0 
   -1.0287   -0.6273    2.4554 H   0  0  0  0  0  0  0  0  0  0  0  0 
    2.4772   -2.3273    4.2807 H   0  0  0  0  0  0  0  0  0  0  0  0 
    6.2304    0.1508   -4.0660 H   0  0  0  0  0  0  0  0  0  0  0  0 
    7.9890    0.2622   -4.1040 H   0  0  0  0  0  0  0  0  0  0  0  0 
    6.2415   -3.6641   -3.5789 H   0  0  0  0  0  0  0  0  0  0  0  0 
    5.1439   -2.3005   -3.7483 H   0  0  0  0  0  0  0  0  0  0  0  0 
    0.2629   -0.2650    0.3546 H   0  0  0  0  0  0  0  0  0  0  0  0 
    3.7638   -1.8995    2.2138 H   0  0  0  0  0  0  0  0  0  0  0  0 
    7.0770    0.8842   -1.8343 H   0  0  0  0  0  0  0  0  0  0  0  0 
    8.1525   -0.5115   -1.7654 H   0  0  0  0  0  0  0  0  0  0  0  0 
    7.1215   -2.7909   -1.4486 H   0  0  0  0  0  0  0  0  0  0  0  0 
    5.3633   -2.8853   -1.3388 H   0  0  0  0  0  0  0  0  0  0  0  0 
    4.1657   -0.7105   -2.3214 H   0  0  0  0  0  0  0  0  0  0  0  0 
    4.8940    0.7221   -1.5500 H   0  0  0  0  0  0  0  0  0  0  0  0 
    5.7525   -0.6783    0.6127 H   0  0  0  0  0  0  0  0  0  0  0  0 
  1 18  1  0  0  0  0 
  2 19  1  0  0  0  0 
  2  5  1  0  0  0  0 
  2  6  1  0  0  0  0 
  3 21  1  0  0  0  0 
  3  1  2  0  0  0  0 
  4  1  1  0  0  0  0 
  4 22  1  0  0  0  0 
  5  9  1  0  0  0  0 
  6 10  1  0  0  0  0 
  7  3  1  0  0  0  0 
  8  4  2  0  0  0  0 
  9 29  1  0  0  0  0 
  9 30  1  0  0  0  0 
  9 14  1  0  0  0  0 
 10 14  1  0  0  0  0 
 10 31  1  0  0  0  0 
 10 32  1  0  0  0  0 
 11 14  1  0  0  0  0 
 11 15  1  0  0  0  0 
 12  7  2  0  0  0  0 
 12  8  1  0  0  0  0 
 13 12  1  0  0  0  0 
 15 13  1  0  0  0  0 
 15 17  1  0  0  0  0 
 16 13  2  0  0  0  0 
 20  2  1  0  0  0  0 
 23  5  1  0  0  0  0 
 24  5  1  0  0  0  0 
 25  6  1  0  0  0  0 
 26  6  1  0  0  0  0 
 27  7  1  0  0  0  0 
 28  8  1  0  0  0  0 
 33 11  1  0  0  0  0 
 34 11  1  0  0  0  0 
 35 17  1  0  0  0  0 
M  END 
>  <HBA> 
4 
 
>  <HBD> 
1 
 
>  <TPSA> 
43.78 
 
>  <cid> 
38695 
 
>  <dipole> 
3.45 
 
>  <excitation_energy_1> 
4.386 
 
>  <excitation_energy_2> 
4.598 
 
>  <excitation_energy_3> 
4.917 
 
>  <excitation_energy_4> 
4.95 
 
>  <homo_energy> 
-6.098 
 
>  <homo_lumo_gap> 
5.274 
 
>  <logP> 
1.899 
 
>  <lumo_energy> 
-0.825 
 
>  <melting_point> 
116.65 
 
>  <molecular_refractivity> 
68.99 
 
>  <oscillator_strength_1> 
0.0021 
 
>  <oscillator_strength_2> 
0.0766 
 
>  <oscillator_strength_3> 
0.1035 
 
>  <oscillator_strength_4> 
0.0171 
 
>  <open_babel_can_smiles> 
ON(C(=O)c1ccccc1)CN1CCCCC1 
 
>  <mulliken_charges> 
35 
1   -0.118949 
2   -0.260548 
3   -0.139425 
4   -0.140352 
5   -0.267493 
6   -0.270713 
7   -0.152059 
8   -0.142851 
9   -0.146936 
10   -0.150143 
11   0.008469 
12   0.07575 
13   0.550409 
14   -0.429866 
15   -0.246486 
16   -0.525975 
17   -0.521924 
18   0.130944 
19   0.13033 
20   0.140368 
21   0.132216 
22   0.129661 
23   0.140684 
24   0.137676 
25   0.139688 
26   0.145724 
27   0.15889 
28   0.144082 
29   0.147612 
30   0.141278 
31   0.139716 
32   0.160231 
33   0.185257 
34   0.157292 
35   0.417442 
 
>  <lowdin_charges> 
35 
1   -0.145854 
2   -0.276093 
3   -0.157799 
4   -0.162246 
5   -0.295041 
6   -0.290495 
7   -0.133446 
8   -0.139911 
9   -0.20459 
10   -0.210629 
11   -0.139405 
12   -0.038315 
13   0.162473 
14   -0.194699 
15   -0.01446 
16   -0.312296 
17   -0.386021 
18   0.158524 
19   0.13814 
20   0.145905 
21   0.157444 
22   0.158604 
23   0.143564 
24   0.150028 
25   0.148785 
26   0.145194 
27   0.175713 
28   0.166658 
29   0.148156 
30   0.14254 
31   0.143054 
32   0.157024 
33   0.166212 
34   0.147342 
35   0.34594 
 
$$$$ 
 
