PCCDB-ID:  27882 
public computational chemistry database (PCCDB) project, http://pccdb.org 
 
 21 21  0  0  0  0  0  0  0  0999 V2000 
    0.7244   -0.9768   -0.3189 C   0  0  0  0  0  0  0  0  0  0  0  0 
    2.0971    2.8722    0.5006 C   0  0  0  0  0  0  0  0  0  0  0  0 
    3.1592   -1.7122   -0.3733 C   0  0  0  0  0  0  0  0  0  0  0  0 
    4.5301   -1.4666   -0.2781 C   0  0  0  0  0  0  0  0  0  0  0  0 
    4.0452    0.8604    0.1600 C   0  0  0  0  0  0  0  0  0  0  0  0 
    2.2045   -0.7099   -0.2126 C   0  0  0  0  0  0  0  0  0  0  0  0 
    4.9859   -0.1717   -0.0080 C   0  0  0  0  0  0  0  0  0  0  0  0 
    2.6799    0.5899    0.0602 C   0  0  0  0  0  0  0  0  0  0  0  0 
    6.3537    0.0949    0.1552 N   0  0  0  0  0  0  0  0  0  0  0  0 
    1.7065    1.5421    0.2119 O   0  0  0  0  0  0  0  0  0  0  0  0 
    0.5374   -2.0299   -0.5519 H   0  0  0  0  0  0  0  0  0  0  0  0 
    0.2577   -0.3653   -1.1010 H   0  0  0  0  0  0  0  0  0  0  0  0 
    0.2011   -0.7359    0.6149 H   0  0  0  0  0  0  0  0  0  0  0  0 
    1.1717    3.4454    0.5865 H   0  0  0  0  0  0  0  0  0  0  0  0 
    2.7121    3.2981   -0.3039 H   0  0  0  0  0  0  0  0  0  0  0  0 
    2.6510    2.9356    1.4469 H   0  0  0  0  0  0  0  0  0  0  0  0 
    2.8201   -2.7239   -0.5856 H   0  0  0  0  0  0  0  0  0  0  0  0 
    5.2425   -2.2780   -0.4051 H   0  0  0  0  0  0  0  0  0  0  0  0 
    4.3991    1.8623    0.3791 H   0  0  0  0  0  0  0  0  0  0  0  0 
    6.9613   -0.5671   -0.3129 H   0  0  0  0  0  0  0  0  0  0  0  0 
    6.6234    1.0459   -0.0673 H   0  0  0  0  0  0  0  0  0  0  0  0 
  1  6  1  0  0  0  0 
  1 13  1  0  0  0  0 
  2 14  1  0  0  0  0 
  2 16  1  0  0  0  0 
  3  4  2  0  0  0  0 
  3  6  1  0  0  0  0 
  4  7  1  0  0  0  0 
  5 19  1  0  0  0  0 
  6  8  2  0  0  0  0 
  7  9  1  0  0  0  0 
  7  5  2  0  0  0  0 
  8  5  1  0  0  0  0 
  8 10  1  0  0  0  0 
 10  2  1  0  0  0  0 
 11  1  1  0  0  0  0 
 12  1  1  0  0  0  0 
 15  2  1  0  0  0  0 
 17  3  1  0  0  0  0 
 18  4  1  0  0  0  0 
 20  9  1  0  0  0  0 
 21  9  1  0  0  0  0 
M  END 
>  <HBA> 
2 
 
>  <HBD> 
1 
 
>  <TPSA> 
35.25 
 
>  <cid> 
27882 
 
>  <dipole> 
2.34 
 
>  <excitation_energy_1> 
4.484 
 
>  <excitation_energy_2> 
4.694 
 
>  <excitation_energy_3> 
5.028 
 
>  <excitation_energy_4> 
5.113 
 
>  <homo_energy> 
-5.061 
 
>  <homo_lumo_gap> 
5.625 
 
>  <logP> 
2.167 
 
>  <lumo_energy> 
0.563 
 
>  <melting_point> 
63.42 
 
>  <molecular_refractivity> 
42.3 
 
>  <oscillator_strength_1> 
0.006 
 
>  <oscillator_strength_2> 
0.0456 
 
>  <oscillator_strength_3> 
0.0056 
 
>  <oscillator_strength_4> 
0.0028 
 
>  <open_babel_can_smiles> 
COc1cc(N)ccc1C 
 
>  <mulliken_charges> 
21 
1   -0.511984 
2   -0.210178 
3   -0.198278 
4   -0.176527 
5   -0.249183 
6   0.124946 
7   0.303697 
8   0.319696 
9   -0.787998 
10   -0.509693 
11   0.141822 
12   0.157887 
13   0.158671 
14   0.166391 
15   0.147104 
16   0.151404 
17   0.116939 
18   0.108639 
19   0.115433 
20   0.316907 
21   0.314306 
 
>  <lowdin_charges> 
21 
1   -0.435593 
2   -0.278136 
3   -0.149691 
4   -0.225164 
5   -0.254744 
6   -0.050334 
7   0.065163 
8   0.101724 
9   -0.494319 
10   -0.199997 
11   0.149951 
12   0.15897 
13   0.158376 
14   0.161238 
15   0.143647 
16   0.144407 
17   0.152536 
18   0.151189 
19   0.155159 
20   0.274713 
21   0.270906 
 
$$$$ 
 
