PCCDB-ID:  36152 
public computational chemistry database (PCCDB) project, http://pccdb.org 
 
 25 25  0  0  0  0  0  0  0  0999 V2000 
    0.9766    0.1107    0.0740 C   0  0  0  0  0  0  0  0  0  0  0  0 
    4.6533    1.1272   -0.1346 C   0  0  0  0  0  0  0  0  0  0  0  0 
    3.2633    1.2041   -0.0284 C   0  0  0  0  0  0  0  0  0  0  0  0 
    5.2798   -0.1111   -0.2591 C   0  0  0  0  0  0  0  0  0  0  0  0 
    5.1950   -2.6437   -0.3796 C   0  0  0  0  0  0  0  0  0  0  0  0 
    5.5790   -3.2131    0.9951 C   0  0  0  0  0  0  0  0  0  0  0  0 
    3.1313   -1.1925   -0.1724 C   0  0  0  0  0  0  0  0  0  0  0  0 
    2.4822    0.0433   -0.0458 C   0  0  0  0  0  0  0  0  0  0  0  0 
    4.5227   -1.2908   -0.2793 C   0  0  0  0  0  0  0  0  0  0  0  0 
    6.6693   -4.9817    2.1627 N   0  0  0  0  0  0  0  0  0  0  0  0 
    6.1378   -4.5600    0.8454 N   0  0  0  0  0  0  0  0  0  0  0  0 
    0.6183    1.1441    0.0312 H   0  0  0  0  0  0  0  0  0  0  0  0 
    0.6308   -0.3206    1.0224 H   0  0  0  0  0  0  0  0  0  0  0  0 
    0.4844   -0.4488   -0.7306 H   0  0  0  0  0  0  0  0  0  0  0  0 
    5.2477    2.0373   -0.1254 H   0  0  0  0  0  0  0  0  0  0  0  0 
    2.7799    2.1740    0.0644 H   0  0  0  0  0  0  0  0  0  0  0  0 
    6.3627   -0.1661   -0.3482 H   0  0  0  0  0  0  0  0  0  0  0  0 
    4.5370   -3.3635   -0.8800 H   0  0  0  0  0  0  0  0  0  0  0  0 
    6.1010   -2.5599   -0.9961 H   0  0  0  0  0  0  0  0  0  0  0  0 
    4.6756   -3.2898    1.6166 H   0  0  0  0  0  0  0  0  0  0  0  0 
    6.2679   -2.5275    1.5173 H   0  0  0  0  0  0  0  0  0  0  0  0 
    2.5350   -2.1039   -0.1953 H   0  0  0  0  0  0  0  0  0  0  0  0 
    6.8847   -5.9733    2.0260 H   0  0  0  0  0  0  0  0  0  0  0  0 
    5.8368   -5.0137    2.7586 H   0  0  0  0  0  0  0  0  0  0  0  0 
    6.9878   -4.4516    0.2868 H   0  0  0  0  0  0  0  0  0  0  0  0 
  1 13  1  0  0  0  0 
  2 15  1  0  0  0  0 
  2  3  2  0  0  0  0 
  3 16  1  0  0  0  0 
  4  2  1  0  0  0  0 
  5  9  1  0  0  0  0 
  5  6  1  0  0  0  0 
  6 21  1  0  0  0  0 
  6 20  1  0  0  0  0 
  7  8  2  0  0  0  0 
  8  3  1  0  0  0  0 
  8  1  1  0  0  0  0 
  9  4  2  0  0  0  0 
  9  7  1  0  0  0  0 
 10 24  1  0  0  0  0 
 11  6  1  0  0  0  0 
 11 10  1  0  0  0  0 
 12  1  1  0  0  0  0 
 14  1  1  0  0  0  0 
 17  4  1  0  0  0  0 
 18  5  1  0  0  0  0 
 19  5  1  0  0  0  0 
 22  7  1  0  0  0  0 
 23 10  1  0  0  0  0 
 25 11  1  0  0  0  0 
M  END 
>  <HBA> 
2 
 
>  <HBD> 
2 
 
>  <TPSA> 
38.05 
 
>  <cid> 
36152 
 
>  <dipole> 
0.63 
 
>  <excitation_energy_1> 
4.743 
 
>  <excitation_energy_2> 
4.825 
 
>  <excitation_energy_3> 
4.953 
 
>  <excitation_energy_4> 
5.205 
 
>  <homo_energy> 
-5.309 
 
>  <homo_lumo_gap> 
5.391 
 
>  <logP> 
2.092 
 
>  <lumo_energy> 
0.082 
 
>  <melting_point> 
92.75 
 
>  <molecular_refractivity> 
46.69 
 
>  <oscillator_strength_1> 
0.0018 
 
>  <oscillator_strength_2> 
0.0061 
 
>  <oscillator_strength_3> 
0.0017 
 
>  <oscillator_strength_4> 
0.003 
 
>  <open_babel_can_smiles> 
NNCCc1cccc(c1)C 
 
>  <mulliken_charges> 
25 
1   -0.529631 
2   -0.125235 
3   -0.185104 
4   -0.183007 
5   -0.362068 
6   -0.109366 
7   -0.234722 
8   0.181328 
9   0.173902 
10   -0.595158 
11   -0.469411 
12   0.154022 
13   0.162567 
14   0.160354 
15   0.126596 
16   0.119459 
17   0.120221 
18   0.156601 
19   0.137766 
20   0.137608 
21   0.135513 
22   0.116036 
23   0.30408 
24   0.302392 
25   0.305256 
 
>  <lowdin_charges> 
25 
1   -0.442822 
2   -0.154729 
3   -0.173183 
4   -0.170517 
5   -0.277476 
6   -0.209551 
7   -0.177908 
8   0.003426 
9   0.001362 
10   -0.495108 
11   -0.323511 
12   0.155322 
13   0.160583 
14   0.160733 
15   0.156883 
16   0.153164 
17   0.151399 
18   0.157553 
19   0.14625 
20   0.139109 
21   0.131858 
22   0.151864 
23   0.251501 
24   0.252441 
25   0.251357 
 
$$$$ 
 
