PCCDB-ID:  7963 
public computational chemistry database (PCCDB) project, http://pccdb.org 
 
 14 14  0  0  0  0  0  0  0  0999 V2000 
    1.0128   -0.0763    0.0008 C   0  0  0  0  0  0  0  0  0  0  0  0 
    3.2506   -1.2787   -0.0888 C   0  0  0  0  0  0  0  0  0  0  0  0 
    3.2573    1.1040   -0.0988 C   0  0  0  0  0  0  0  0  0  0  0  0 
    4.6443   -1.2294   -0.1506 C   0  0  0  0  0  0  0  0  0  0  0  0 
    4.6479    1.0472   -0.1599 C   0  0  0  0  0  0  0  0  0  0  0  0 
    2.5204   -0.0869   -0.0621 C   0  0  0  0  0  0  0  0  0  0  0  0 
    5.3508   -0.0939   -0.1867 N   0  0  0  0  0  0  0  0  0  0  0  0 
    0.6070   -1.0901    0.0699 H   0  0  0  0  0  0  0  0  0  0  0  0 
    0.5837    0.3982   -0.8903 H   0  0  0  0  0  0  0  0  0  0  0  0 
    0.6567    0.4909    0.8691 H   0  0  0  0  0  0  0  0  0  0  0  0 
    2.7418   -2.2391   -0.0619 H   0  0  0  0  0  0  0  0  0  0  0  0 
    2.7539    2.0677   -0.0797 H   0  0  0  0  0  0  0  0  0  0  0  0 
    5.2218   -2.1527   -0.1713 H   0  0  0  0  0  0  0  0  0  0  0  0 
    5.2309    1.9668   -0.1883 H   0  0  0  0  0  0  0  0  0  0  0  0 
  1  8  1  0  0  0  0 
  1 10  1  0  0  0  0 
  2  6  1  0  0  0  0 
  2 11  1  0  0  0  0 
  3 12  1  0  0  0  0 
  3  6  2  0  0  0  0 
  4  2  2  0  0  0  0 
  5  3  1  0  0  0  0 
  6  1  1  0  0  0  0 
  7  5  2  0  0  0  0 
  7  4  1  0  0  0  0 
  9  1  1  0  0  0  0 
 13  4  1  0  0  0  0 
 14  5  1  0  0  0  0 
M  END 
>  <HBA> 
1 
 
>  <HBD> 
0 
 
>  <TPSA> 
12.89 
 
>  <cid> 
7963 
 
>  <dipole> 
2.65 
 
>  <excitation_energy_1> 
4.922 
 
>  <excitation_energy_2> 
5.156 
 
>  <excitation_energy_3> 
5.461 
 
>  <excitation_energy_4> 
6.141 
 
>  <homo_energy> 
-6.792 
 
>  <homo_lumo_gap> 
6.294 
 
>  <logP> 
1.39 
 
>  <lumo_energy> 
-0.498 
 
>  <melting_point> 
22.66 
 
>  <molecular_refractivity> 
29.2 
 
>  <oscillator_strength_1> 
0.0044 
 
>  <oscillator_strength_2> 
0.0003 
 
>  <oscillator_strength_3> 
0.0283 
 
>  <oscillator_strength_4> 
0.0022 
 
>  <open_babel_can_smiles> 
Cc1ccncc1 
 
>  <mulliken_charges> 
14 
1   -0.529059 
2   -0.186178 
3   -0.179999 
4   0.04095 
5   0.037393 
6   0.190988 
7   -0.411112 
8   0.160697 
9   0.170853 
10   0.169585 
11   0.128965 
12   0.128657 
13   0.139085 
14   0.139174 
 
>  <lowdin_charges> 
14 
1   -0.443571 
2   -0.189153 
3   -0.186522 
4   -0.087707 
5   -0.088397 
6   0.02685 
7   -0.156111 
8   0.159304 
9   0.167064 
10   0.166476 
11   0.15995 
12   0.159975 
13   0.155895 
14   0.155946 
 
$$$$ 
 
