PCCDB-ID:  7735 
public computational chemistry database (PCCDB) project, http://pccdb.org 
 
 26 26  0  0  1  0  0  0  0  0999 V2000 
    0.7130    1.2433   -0.2536 C   0  0  0  0  0  0  0  0  0  0  0  0 
    1.4344   -0.0065    0.2687 C   0  0  0  0  0  0  0  0  0  0  0  0 
   -1.4772   -0.0242   -0.2645 C   0  0  0  0  0  0  0  0  0  0  0  0 
   -0.7511   -1.2791    0.2446 C   0  0  0  0  0  0  0  0  0  0  0  0 
   -1.4979    2.5079   -0.3646 C   0  0  0  0  0  0  0  0  0  0  0  0 
    1.4324   -2.5546    0.3601 C   0  0  0  0  0  0  0  0  0  0  0  0 
   -0.7663    1.2703    0.1686 C   0  0  2  0  0  0  0  0  0  0  0  0 
    0.7307   -1.3003   -0.1721 C   0  0  2  0  0  0  0  0  0  0  0  0 
   -0.9083    3.7384    0.0444 O   0  0  0  0  0  0  0  0  0  0  0  0 
    2.7996   -2.6574   -0.0271 O   0  0  0  0  0  0  0  0  0  0  0  0 
    0.7651    1.2642   -1.3535 H   0  0  0  0  0  0  0  0  0  0  0  0 
    1.2120    2.1546    0.0935 H   0  0  0  0  0  0  0  0  0  0  0  0 
    1.4639    0.0213    1.3693 H   0  0  0  0  0  0  0  0  0  0  0  0 
    2.4778   -0.0225   -0.0652 H   0  0  0  0  0  0  0  0  0  0  0  0 
   -2.5164   -0.0243    0.0917 H   0  0  0  0  0  0  0  0  0  0  0  0 
   -1.5260   -0.0552   -1.3638 H   0  0  0  0  0  0  0  0  0  0  0  0 
   -1.2614   -2.1806   -0.1208 H   0  0  0  0  0  0  0  0  0  0  0  0 
   -0.8131   -1.3108    1.3432 H   0  0  0  0  0  0  0  0  0  0  0  0 
   -2.5619    2.4665   -0.0759 H   0  0  0  0  0  0  0  0  0  0  0  0 
   -1.4605    2.5207   -1.4604 H   0  0  0  0  0  0  0  0  0  0  0  0 
    0.8690   -3.4530    0.0557 H   0  0  0  0  0  0  0  0  0  0  0  0 
    1.4453   -2.5371    1.4564 H   0  0  0  0  0  0  0  0  0  0  0  0 
   -0.8026    1.3151    1.2720 H   0  0  0  0  0  0  0  0  0  0  0  0 
    0.7647   -1.3439   -1.2757 H   0  0  0  0  0  0  0  0  0  0  0  0 
   -0.9630    3.7775    1.0122 H   0  0  0  0  0  0  0  0  0  0  0  0 
    2.8236   -2.7159   -0.9951 H   0  0  0  0  0  0  0  0  0  0  0  0 
  1 12  1  0  0  0  0 
  1  7  1  0  0  0  0 
  1  2  1  0  0  0  0 
  2 13  1  0  0  0  0 
  3 15  1  0  0  0  0 
  3  7  1  0  0  0  0 
  3  4  1  0  0  0  0 
  4 18  1  0  0  0  0 
  5 19  1  0  0  0  0 
  5  9  1  0  0  0  0 
  5  7  1  0  0  0  0 
  6 22  1  0  0  0  0 
  7 23  1  1  0  0  0 
  8 24  1  6  0  0  0 
  8  4  1  0  0  0  0 
  8  2  1  0  0  0  0 
  8  6  1  0  0  0  0 
  9 25  1  0  0  0  0 
 10  6  1  0  0  0  0 
 11  1  1  0  0  0  0 
 14  2  1  0  0  0  0 
 16  3  1  0  0  0  0 
 17  4  1  0  0  0  0 
 20  5  1  0  0  0  0 
 21  6  1  0  0  0  0 
 26 10  1  0  0  0  0 
M  END 
>  <HBA> 
2 
 
>  <HBD> 
2 
 
>  <TPSA> 
40.46 
 
>  <cid> 
7735 
 
>  <dipole> 
1.94 
 
>  <excitation_energy_1> 
6.337 
 
>  <excitation_energy_2> 
6.346 
 
>  <excitation_energy_3> 
6.883 
 
>  <excitation_energy_4> 
6.905 
 
>  <homo_energy> 
-7.08 
 
>  <homo_lumo_gap> 
8.955 
 
>  <logP> 
0.777 
 
>  <lumo_energy> 
1.875 
 
>  <melting_point> 
31.92 
 
>  <molecular_refractivity> 
40.78 
 
>  <oscillator_strength_1> 
0.008 
 
>  <oscillator_strength_2> 
0.0007 
 
>  <oscillator_strength_3> 
0.0074 
 
>  <oscillator_strength_4> 
0.0096 
 
>  <open_babel_can_smiles> 
OC[C@@H]1CC[C@H](CC1)CO 
 
>  <mulliken_charges> 
26 
1   -0.255412 
2   -0.255568 
3   -0.268 
4   -0.26765 
5   -0.027242 
6   -0.026789 
7   -0.107765 
8   -0.107716 
9   -0.614689 
10   -0.615087 
11   0.122385 
12   0.144826 
13   0.122431 
14   0.144559 
15   0.129618 
16   0.128654 
17   0.129571 
18   0.128577 
19   0.116296 
20   0.140824 
21   0.116204 
22   0.140733 
23   0.104866 
24   0.104942 
25   0.385715 
26   0.385716 
 
>  <lowdin_charges> 
26 
1   -0.27686 
2   -0.274925 
3   -0.273283 
4   -0.27528 
5   -0.132318 
6   -0.13483 
7   -0.145536 
8   -0.145039 
9   -0.462944 
10   -0.463499 
11   0.134498 
12   0.151754 
13   0.134477 
14   0.149892 
15   0.141396 
16   0.136348 
17   0.143096 
18   0.136359 
19   0.123184 
20   0.141982 
21   0.125712 
22   0.141973 
23   0.124421 
24   0.124455 
25   0.337484 
26   0.337483 
 
$$$$ 
 
