PCCDB-ID:  10308 
public computational chemistry database (PCCDB) project, http://pccdb.org 
 
 28 30  0  0  0  0  0  0  0  0999 V2000 
   -4.0055    0.0970    0.0377 C   0  0  0  0  0  0  0  0  0  0  0  0 
    3.9935    0.3142   -0.0145 C   0  0  0  0  0  0  0  0  0  0  0  0 
   -3.6340   -1.2366    0.2136 C   0  0  0  0  0  0  0  0  0  0  0  0 
    3.6981   -1.0266   -0.2642 C   0  0  0  0  0  0  0  0  0  0  0  0 
   -3.0088    1.0456   -0.1784 C   0  0  0  0  0  0  0  0  0  0  0  0 
    2.9423    1.1963    0.2221 C   0  0  0  0  0  0  0  0  0  0  0  0 
   -2.2916   -1.5901    0.1827 C   0  0  0  0  0  0  0  0  0  0  0  0 
    2.3766   -1.4513   -0.2834 C   0  0  0  0  0  0  0  0  0  0  0  0 
   -0.6340    1.8025   -0.4979 C   0  0  0  0  0  0  0  0  0  0  0  0 
    0.5277    1.8163    0.5209 C   0  0  0  0  0  0  0  0  0  0  0  0 
   -1.6485    0.7168   -0.2378 C   0  0  0  0  0  0  0  0  0  0  0  0 
    1.6000    0.7947    0.2307 C   0  0  0  0  0  0  0  0  0  0  0  0 
   -1.2802   -0.6320   -0.0368 C   0  0  0  0  0  0  0  0  0  0  0  0 
    1.3093   -0.5603   -0.0438 C   0  0  0  0  0  0  0  0  0  0  0  0 
    0.0291   -1.1254   -0.0749 N   0  0  0  0  0  0  0  0  0  0  0  0 
   -5.0496    0.3936    0.0696 H   0  0  0  0  0  0  0  0  0  0  0  0 
    5.0206    0.6664   -0.0041 H   0  0  0  0  0  0  0  0  0  0  0  0 
   -4.3852   -2.0029    0.3850 H   0  0  0  0  0  0  0  0  0  0  0  0 
    4.4930   -1.7433   -0.4528 H   0  0  0  0  0  0  0  0  0  0  0  0 
   -3.2862    2.0879   -0.3211 H   0  0  0  0  0  0  0  0  0  0  0  0 
    3.1596    2.2435    0.4215 H   0  0  0  0  0  0  0  0  0  0  0  0 
   -2.0054   -2.6294    0.3364 H   0  0  0  0  0  0  0  0  0  0  0  0 
    2.1511   -2.4955   -0.4935 H   0  0  0  0  0  0  0  0  0  0  0  0 
   -0.2126    1.7093   -1.5085 H   0  0  0  0  0  0  0  0  0  0  0  0 
   -1.1498    2.7692   -0.4683 H   0  0  0  0  0  0  0  0  0  0  0  0 
    0.1109    1.6697    1.5270 H   0  0  0  0  0  0  0  0  0  0  0  0 
    0.9931    2.8087    0.5235 H   0  0  0  0  0  0  0  0  0  0  0  0 
    0.0571   -2.1352   -0.1071 H   0  0  0  0  0  0  0  0  0  0  0  0 
  1 16  1  0  0  0  0 
  1  3  2  0  0  0  0 
  2 17  1  0  0  0  0 
  2  6  2  0  0  0  0 
  3 18  1  0  0  0  0 
  4  2  1  0  0  0  0 
  5  1  1  0  0  0  0 
  6 12  1  0  0  0  0 
  6 21  1  0  0  0  0 
  7  3  1  0  0  0  0 
  7 22  1  0  0  0  0 
  8  4  2  0  0  0  0 
  8 14  1  0  0  0  0 
  9 25  1  0  0  0  0 
  9 11  1  0  0  0  0 
  9 10  1  0  0  0  0 
 10 27  1  0  0  0  0 
 10 26  1  0  0  0  0 
 11  5  2  0  0  0  0 
 11 13  1  0  0  0  0 
 12 10  1  0  0  0  0 
 13  7  2  0  0  0  0 
 14 12  2  0  0  0  0 
 15 14  1  0  0  0  0 
 15 13  1  0  0  0  0 
 19  4  1  0  0  0  0 
 20  5  1  0  0  0  0 
 23  8  1  0  0  0  0 
 24  9  1  0  0  0  0 
 28 15  1  0  0  0  0 
M  END 
>  <HBA> 
0 
 
>  <HBD> 
1 
 
>  <TPSA> 
12.03 
 
>  <cid> 
10308 
 
>  <dipole> 
0.49 
 
>  <excitation_energy_1> 
4.164 
 
>  <excitation_energy_2> 
4.226 
 
>  <excitation_energy_3> 
4.257 
 
>  <excitation_energy_4> 
4.425 
 
>  <homo_energy> 
-4.944 
 
>  <homo_lumo_gap> 
4.879 
 
>  <logP> 
3.667 
 
>  <lumo_energy> 
-0.065 
 
>  <melting_point> 
109.7 
 
>  <molecular_refractivity> 
66.74 
 
>  <oscillator_strength_1> 
0.0339 
 
>  <oscillator_strength_2> 
0.3243 
 
>  <oscillator_strength_3> 
0.0558 
 
>  <oscillator_strength_4> 
0.0656 
 
>  <open_babel_can_smiles> 
c1ccc2c(c1)Nc1ccccc1CC2 
 
>  <mulliken_charges> 
28 
1   -0.12987 
2   -0.130116 
3   -0.135166 
4   -0.134827 
5   -0.212351 
6   -0.212593 
7   -0.198177 
8   -0.199074 
9   -0.351443 
10   -0.351031 
11   0.158049 
12   0.158899 
13   0.33179 
14   0.331177 
15   -0.829215 
16   0.122735 
17   0.12256 
18   0.12638 
19   0.126197 
20   0.121172 
21   0.121044 
22   0.117405 
23   0.117153 
24   0.159565 
25   0.142596 
26   0.159613 
27   0.142641 
28   0.324889 
 
>  <lowdin_charges> 
28 
1   -0.181002 
2   -0.181992 
3   -0.153161 
4   -0.153003 
5   -0.156283 
6   -0.155744 
7   -0.194911 
8   -0.194896 
9   -0.27141 
10   -0.271149 
11   -0.036916 
12   -0.037714 
13   0.053508 
14   0.05375 
15   -0.242253 
16   0.154933 
17   0.155164 
18   0.15822 
19   0.158125 
20   0.152508 
21   0.152289 
22   0.149205 
23   0.148892 
24   0.155523 
25   0.151522 
26   0.155422 
27   0.151157 
28   0.280216 
 
$$$$ 
 
