PCCDB-ID:  69336 
public computational chemistry database (PCCDB) project, http://pccdb.org 
 
 12 11  0  0  0  0  0  0  0  0999 V2000 
    0.8919   -0.2481    0.3635 C   0  0  0  0  0  0  0  0  0  0  0  0 
    2.3597   -0.0722    0.0120 C   0  0  0  0  0  0  0  0  0  0  0  0 
    2.6531    2.5055   -2.5742 C   0  0  0  0  0  0  0  0  0  0  0  0 
    2.3890    1.1715   -2.0118 C   0  0  0  0  0  0  0  0  0  0  0  0 
    2.8440    3.5337   -3.0767 N   0  0  0  0  0  0  0  0  0  0  0  0 
    2.0522    0.2345   -2.6956 O   0  0  0  0  0  0  0  0  0  0  0  0 
    2.5840    1.1870   -0.6923 O   0  0  0  0  0  0  0  0  0  0  0  0 
    0.7690   -1.1556    0.9651 H   0  0  0  0  0  0  0  0  0  0  0  0 
    0.2828   -0.3516   -0.5388 H   0  0  0  0  0  0  0  0  0  0  0  0 
    0.5261    0.6030    0.9462 H   0  0  0  0  0  0  0  0  0  0  0  0 
    2.7289   -0.8876   -0.6139 H   0  0  0  0  0  0  0  0  0  0  0  0 
    2.9848    0.0189    0.9020 H   0  0  0  0  0  0  0  0  0  0  0  0 
  1 10  1  0  0  0  0 
  1  8  1  0  0  0  0 
  2  1  1  0  0  0  0 
  2 12  1  0  0  0  0 
  3  4  1  0  0  0  0 
  4  7  1  0  0  0  0 
  5  3  3  0  0  0  0 
  6  4  2  0  0  0  0 
  7  2  1  0  0  0  0 
  9  1  1  0  0  0  0 
 11  2  1  0  0  0  0 
M  END 
>  <HBA> 
3 
 
>  <HBD> 
0 
 
>  <TPSA> 
50.09 
 
>  <cid> 
69336 
 
>  <dipole> 
4.35 
 
>  <excitation_energy_1> 
5.014 
 
>  <excitation_energy_2> 
6.325 
 
>  <excitation_energy_3> 
6.621 
 
>  <excitation_energy_4> 
6.791 
 
>  <homo_energy> 
-8.632 
 
>  <homo_lumo_gap> 
6.689 
 
>  <logP> 
0.073 
 
>  <lumo_energy> 
-1.943 
 
>  <melting_point> 
21.11 
 
>  <molecular_refractivity> 
22.38 
 
>  <oscillator_strength_1> 
0.0001 
 
>  <oscillator_strength_2> 
0.0001 
 
>  <oscillator_strength_3> 
0.1171 
 
>  <oscillator_strength_4> 
0.0575 
 
>  <open_babel_can_smiles> 
CCOC(=O)C#N 
 
>  <mulliken_charges> 
12 
1   -0.46717 
2   -0.057517 
3   0.338713 
4   0.61935 
5   -0.445105 
6   -0.430145 
7   -0.430884 
8   0.163819 
9   0.182071 
10   0.170584 
11   0.182932 
12   0.173352 
 
>  <lowdin_charges> 
12 
1   -0.4547 
2   -0.125496 
3   -0.020189 
4   0.199944 
5   -0.058046 
6   -0.213217 
7   -0.158802 
8   0.166928 
9   0.168931 
10   0.164143 
11   0.166328 
12   0.164178 
 
$$$$ 
 
