PCCDB-ID:  12243 
public computational chemistry database (PCCDB) project, http://pccdb.org 
 
 18 17  0  0  0  0  0  0  0  0999 V2000 
    2.1444   -1.5247    0.6684 C   0  0  0  0  0  0  0  0  0  0  0  0 
    5.6271    0.8721    0.1180 C   0  0  0  0  0  0  0  0  0  0  0  0 
    4.7839    2.3085    2.0328 C   0  0  0  0  0  0  0  0  0  0  0  0 
    2.6976   -0.2871   -0.0600 C   0  0  0  0  0  0  0  0  0  0  0  0 
    3.2210    0.7549    0.8930 C   0  0  0  0  0  0  0  0  0  0  0  0 
    4.4600    1.2611    0.9930 C   0  0  0  0  0  0  0  0  0  0  0  0 
    1.7223   -2.2457   -0.0412 H   0  0  0  0  0  0  0  0  0  0  0  0 
    1.3517   -1.2462    1.3735 H   0  0  0  0  0  0  0  0  0  0  0  0 
    2.9326   -2.0283    1.2392 H   0  0  0  0  0  0  0  0  0  0  0  0 
    6.4627    0.5033    0.7294 H   0  0  0  0  0  0  0  0  0  0  0  0 
    6.0087    1.7446   -0.4310 H   0  0  0  0  0  0  0  0  0  0  0  0 
    5.3820    0.0988   -0.6135 H   0  0  0  0  0  0  0  0  0  0  0  0 
    5.5914    1.9712    2.6983 H   0  0  0  0  0  0  0  0  0  0  0  0 
    3.9147    2.5532    2.6516 H   0  0  0  0  0  0  0  0  0  0  0  0 
    5.1384    3.2373    1.5633 H   0  0  0  0  0  0  0  0  0  0  0  0 
    1.8893    0.1551   -0.6623 H   0  0  0  0  0  0  0  0  0  0  0  0 
    3.4695   -0.5984   -0.7718 H   0  0  0  0  0  0  0  0  0  0  0  0 
    2.4741    1.1273    1.5978 H   0  0  0  0  0  0  0  0  0  0  0  0 
  1  9  1  0  0  0  0 
  1  8  1  0  0  0  0 
  2 10  1  0  0  0  0 
  2  6  1  0  0  0  0 
  3 14  1  0  0  0  0 
  3 13  1  0  0  0  0 
  4  1  1  0  0  0  0 
  4  5  1  0  0  0  0 
  5  6  2  0  0  0  0 
  5 18  1  0  0  0  0 
  6  3  1  0  0  0  0 
  7  1  1  0  0  0  0 
 11  2  1  0  0  0  0 
 12  2  1  0  0  0  0 
 15  3  1  0  0  0  0 
 16  4  1  0  0  0  0 
 17  4  1  0  0  0  0 
M  END 
>  <HBA> 
0 
 
>  <HBD> 
0 
 
>  <TPSA> 
0.0 
 
>  <cid> 
12243 
 
>  <dipole> 
0.23 
 
>  <excitation_energy_1> 
5.747 
 
>  <excitation_energy_2> 
6.17 
 
>  <excitation_energy_3> 
6.291 
 
>  <excitation_energy_4> 
6.428 
 
>  <homo_energy> 
-6.15 
 
>  <homo_lumo_gap> 
7.105 
 
>  <logP> 
2.363 
 
>  <lumo_energy> 
0.955 
 
>  <melting_point> 
-13.35 
 
>  <molecular_refractivity> 
30.48 
 
>  <oscillator_strength_1> 
0.0139 
 
>  <oscillator_strength_2> 
0.1327 
 
>  <oscillator_strength_3> 
0.0353 
 
>  <oscillator_strength_4> 
0.0712 
 
>  <open_babel_can_smiles> 
CCC=C(C)C 
 
>  <mulliken_charges> 
18 
1   -0.437232 
2   -0.512385 
3   -0.505291 
4   -0.29407 
5   -0.153453 
6   0.186008 
7   0.140222 
8   0.14247 
9   0.148027 
10   0.150247 
11   0.15113 
12   0.153618 
13   0.147448 
14   0.150088 
15   0.148007 
16   0.140427 
17   0.137465 
18   0.107274 
 
>  <lowdin_charges> 
18 
1   -0.445034 
2   -0.446411 
3   -0.44081 
4   -0.273789 
5   -0.191316 
6   -0.012379 
7   0.148961 
8   0.147541 
9   0.150701 
10   0.154918 
11   0.155305 
12   0.155646 
13   0.152177 
14   0.154352 
15   0.151876 
16   0.148004 
17   0.145802 
18   0.144458 
 
$$$$ 
 
