PCCDB-ID:  7478 
public computational chemistry database (PCCDB) project, http://pccdb.org 
 
 19 19  0  0  0  0  0  0  0  0999 V2000 
    2.0855   -1.2271    0.7018 C   0  0  0  0  0  0  0  0  0  0  0  0 
    4.3414   -1.0799   -3.5414 C   0  0  0  0  0  0  0  0  0  0  0  0 
    3.6913   -3.2332   -2.6541 C   0  0  0  0  0  0  0  0  0  0  0  0 
    3.8028   -0.4576   -2.4270 C   0  0  0  0  0  0  0  0  0  0  0  0 
    3.1467   -2.6194   -1.5297 C   0  0  0  0  0  0  0  0  0  0  0  0 
    4.2923   -2.4796   -3.6683 C   0  0  0  0  0  0  0  0  0  0  0  0 
    3.2007   -1.2224   -1.4129 C   0  0  0  0  0  0  0  0  0  0  0  0 
    4.8505   -3.1960   -4.8357 C   0  0  0  0  0  0  0  0  0  0  0  0 
    5.4079   -2.3633   -5.7573 O   0  0  0  0  0  0  0  0  0  0  0  0 
    4.8345   -4.4023   -4.9937 O   0  0  0  0  0  0  0  0  0  0  0  0 
    2.7026   -0.5167   -0.3637 O   0  0  0  0  0  0  0  0  0  0  0  0 
    1.7702   -0.4690    1.4205 H   0  0  0  0  0  0  0  0  0  0  0  0 
    2.7893   -1.9163    1.1853 H   0  0  0  0  0  0  0  0  0  0  0  0 
    1.2078   -1.7873    0.3554 H   0  0  0  0  0  0  0  0  0  0  0  0 
    4.8057   -0.4869   -4.3215 H   0  0  0  0  0  0  0  0  0  0  0  0 
    3.6583   -4.3127   -2.7605 H   0  0  0  0  0  0  0  0  0  0  0  0 
    3.8330    0.6210   -2.3115 H   0  0  0  0  0  0  0  0  0  0  0  0 
    2.6882   -3.2272   -0.7585 H   0  0  0  0  0  0  0  0  0  0  0  0 
    5.7354   -2.9463   -6.4666 H   0  0  0  0  0  0  0  0  0  0  0  0 
  1 13  1  0  0  0  0 
  1 12  1  0  0  0  0 
  2  4  1  0  0  0  0 
  3  5  2  0  0  0  0 
  4 17  1  0  0  0  0 
  4  7  2  0  0  0  0 
  5  7  1  0  0  0  0 
  5 18  1  0  0  0  0 
  6  2  2  0  0  0  0 
  6  3  1  0  0  0  0 
  7 11  1  0  0  0  0 
  8  6  1  0  0  0  0 
  9  8  1  0  0  0  0 
 10  8  2  0  0  0  0 
 11  1  1  0  0  0  0 
 14  1  1  0  0  0  0 
 15  2  1  0  0  0  0 
 16  3  1  0  0  0  0 
 19  9  1  0  0  0  0 
M  END 
>  <HBA> 
3 
 
>  <HBD> 
1 
 
>  <TPSA> 
46.53 
 
>  <cid> 
7478 
 
>  <dipole> 
2.46 
 
>  <excitation_energy_1> 
4.889 
 
>  <excitation_energy_2> 
4.907 
 
>  <excitation_energy_3> 
4.997 
 
>  <excitation_energy_4> 
5.806 
 
>  <homo_energy> 
-6.283 
 
>  <homo_lumo_gap> 
5.284 
 
>  <logP> 
1.393 
 
>  <lumo_energy> 
-0.999 
 
>  <melting_point> 
100.75 
 
>  <molecular_refractivity> 
39.89 
 
>  <oscillator_strength_1> 
0.3756 
 
>  <oscillator_strength_2> 
0.0013 
 
>  <oscillator_strength_3> 
0.0 
 
>  <oscillator_strength_4> 
0.0075 
 
>  <open_babel_can_smiles> 
COc1ccc(cc1)C(=O)O 
 
>  <mulliken_charges> 
19 
1   -0.219754 
2   -0.164492 
3   -0.16665 
4   -0.178455 
5   -0.201637 
6   0.069379 
7   0.387797 
8   0.532659 
9   -0.587659 
10   -0.483258 
11   -0.500403 
12   0.175242 
13   0.15813 
14   0.158069 
15   0.161419 
16   0.165669 
17   0.145186 
18   0.139246 
19   0.409515 
 
>  <lowdin_charges> 
19 
1   -0.280814 
2   -0.129317 
3   -0.113876 
4   -0.181506 
5   -0.215497 
6   -0.068997 
7   0.1163 
8   0.190952 
9   -0.366277 
10   -0.280722 
11   -0.187785 
12   0.167118 
13   0.150466 
14   0.149431 
15   0.176232 
16   0.176056 
17   0.168275 
18   0.167128 
19   0.362836 
 
$$$$ 
 
