PCCDB-ID:  33064 
public computational chemistry database (PCCDB) project, http://pccdb.org 
 
 32 33  0  0  0  0  0  0  0  0999 V2000 
    1.8294    0.8633    4.6406 C   0  0  0  0  0  0  0  0  0  0  0  0 
    3.9226    5.6811   -2.2272 C   0  0  0  0  0  0  0  0  0  0  0  0 
    3.0000    1.2704    3.9990 C   0  0  0  0  0  0  0  0  0  0  0  0 
    0.7244    0.4670    3.8821 C   0  0  0  0  0  0  0  0  0  0  0  0 
    4.0556    5.6280   -0.6957 C   0  0  0  0  0  0  0  0  0  0  0  0 
    3.5039    4.3161   -2.8010 C   0  0  0  0  0  0  0  0  0  0  0  0 
    3.0695    1.2939    2.6056 C   0  0  0  0  0  0  0  0  0  0  0  0 
    0.7953    0.4783    2.4926 C   0  0  0  0  0  0  0  0  0  0  0  0 
    4.9714    4.4713   -0.2616 C   0  0  0  0  0  0  0  0  0  0  0  0 
    4.4579    3.2155   -2.3073 C   0  0  0  0  0  0  0  0  0  0  0  0 
    2.8897    1.5963   -0.5199 C   0  0  0  0  0  0  0  0  0  0  0  0 
    1.9627    0.9025    1.8359 C   0  0  0  0  0  0  0  0  0  0  0  0 
    1.9484    0.8419    0.3352 C   0  0  0  0  0  0  0  0  0  0  0  0 
    3.6666    2.5252   -0.0639 N   0  0  0  0  0  0  0  0  0  0  0  0 
    4.5273    3.1981   -0.8382 N   0  0  0  0  0  0  0  0  0  0  0  0 
    1.1071    0.1515   -0.2424 O   0  0  0  0  0  0  0  0  0  0  0  0 
    1.7793    0.8498    5.7265 H   0  0  0  0  0  0  0  0  0  0  0  0 
    4.8892    5.9730   -2.6645 H   0  0  0  0  0  0  0  0  0  0  0  0 
    3.2016    6.4533   -2.5203 H   0  0  0  0  0  0  0  0  0  0  0  0 
    3.8662    1.5676    4.5847 H   0  0  0  0  0  0  0  0  0  0  0  0 
   -0.1891    0.1453    4.3755 H   0  0  0  0  0  0  0  0  0  0  0  0 
    3.0679    5.4796   -0.2394 H   0  0  0  0  0  0  0  0  0  0  0  0 
    4.4511    6.5757   -0.3093 H   0  0  0  0  0  0  0  0  0  0  0  0 
    3.5041    4.3395   -3.8978 H   0  0  0  0  0  0  0  0  0  0  0  0 
    2.4813    4.0732   -2.4846 H   0  0  0  0  0  0  0  0  0  0  0  0 
    3.9788    1.6151    2.1150 H   0  0  0  0  0  0  0  0  0  0  0  0 
   -0.0456    0.1572    1.8869 H   0  0  0  0  0  0  0  0  0  0  0  0 
    4.9824    4.3502    0.8235 H   0  0  0  0  0  0  0  0  0  0  0  0 
    6.0001    4.6534   -0.6012 H   0  0  0  0  0  0  0  0  0  0  0  0 
    5.4764    3.4125   -2.6658 H   0  0  0  0  0  0  0  0  0  0  0  0 
    4.1795    2.2267   -2.6757 H   0  0  0  0  0  0  0  0  0  0  0  0 
    2.8035    1.3270   -1.5741 H   0  0  0  0  0  0  0  0  0  0  0  0 
  1 17  1  0  0  0  0 
  2  5  1  0  0  0  0 
  3 20  1  0  0  0  0 
  3  1  1  0  0  0  0 
  4 21  1  0  0  0  0 
  4  1  2  0  0  0  0 
  5 23  1  0  0  0  0 
  5  9  1  0  0  0  0 
  5 22  1  0  0  0  0 
  6 25  1  0  0  0  0 
  6 10  1  0  0  0  0 
  6  2  1  0  0  0  0 
  7  3  2  0  0  0  0 
  8  4  1  0  0  0  0 
  9 28  1  0  0  0  0 
 10 15  1  0  0  0  0 
 11 14  2  0  0  0  0 
 11 13  1  0  0  0  0 
 12  8  2  0  0  0  0 
 12  7  1  0  0  0  0 
 13 12  1  0  0  0  0 
 15  9  1  0  0  0  0 
 15 14  1  0  0  0  0 
 16 13  2  0  0  0  0 
 18  2  1  0  0  0  0 
 19  2  1  0  0  0  0 
 24  6  1  0  0  0  0 
 26  7  1  0  0  0  0 
 27  8  1  0  0  0  0 
 29  9  1  0  0  0  0 
 30 10  1  0  0  0  0 
 31 10  1  0  0  0  0 
 32 11  1  0  0  0  0 
M  END 
>  <HBA> 
3 
 
>  <HBD> 
0 
 
>  <TPSA> 
32.67 
 
>  <cid> 
33064 
 
>  <dipole> 
4.81 
 
>  <excitation_energy_1> 
3.519 
 
>  <excitation_energy_2> 
4.055 
 
>  <excitation_energy_3> 
4.354 
 
>  <excitation_energy_4> 
4.637 
 
>  <homo_energy> 
-5.959 
 
>  <homo_lumo_gap> 
4.465 
 
>  <logP> 
2.279 
 
>  <lumo_energy> 
-1.494 
 
>  <melting_point> 
77.97 
 
>  <molecular_refractivity> 
69.05 
 
>  <oscillator_strength_1> 
0.0015 
 
>  <oscillator_strength_2> 
0.3943 
 
>  <oscillator_strength_3> 
0.0241 
 
>  <oscillator_strength_4> 
0.0746 
 
>  <open_babel_can_smiles> 
O=C(c1ccccc1)/C=N/N1CCCCC1 
 
>  <mulliken_charges> 
32 
1   -0.119374 
2   -0.266604 
3   -0.142352 
4   -0.136052 
5   -0.267501 
6   -0.265381 
7   -0.157035 
8   -0.152845 
9   -0.13415 
10   -0.165919 
11   -0.02915 
12   0.062372 
13   0.383429 
14   -0.233851 
15   -0.226541 
16   -0.49479 
17   0.129835 
18   0.13248 
19   0.145565 
20   0.127374 
21   0.130965 
22   0.154873 
23   0.141439 
24   0.144337 
25   0.156776 
26   0.15291 
27   0.157638 
28   0.170739 
29   0.143475 
30   0.154807 
31   0.171019 
32   0.131512 
 
>  <lowdin_charges> 
32 
1   -0.142742 
2   -0.280184 
3   -0.16446 
4   -0.160872 
5   -0.288493 
6   -0.283723 
7   -0.146615 
8   -0.13383 
9   -0.197358 
10   -0.213052 
11   -0.190952 
12   -0.0398 
13   0.145866 
14   -0.064951 
15   -0.049736 
16   -0.268034 
17   0.155416 
18   0.139333 
19   0.152112 
20   0.157192 
21   0.15859 
22   0.151008 
23   0.151232 
24   0.15013 
25   0.1514 
26   0.170348 
27   0.174724 
28   0.163699 
29   0.14308 
30   0.152828 
31   0.162016 
32   0.145827 
 
$$$$ 
 
