PCCDB-ID:  35411 
public computational chemistry database (PCCDB) project, http://pccdb.org 
 
 27 27  0  0  0  0  0  0  0  0999 V2000 
    1.9179   -0.7473    1.2939 C   0  0  0  0  0  0  0  0  0  0  0  0 
    2.7942    1.6418   -1.7038 C   0  0  0  0  0  0  0  0  0  0  0  0 
    2.0213   -0.0175   -0.0523 C   0  0  0  0  0  0  0  0  0  0  0  0 
    4.7029    2.0968    2.1139 C   0  0  0  0  0  0  0  0  0  0  0  0 
    5.0226    0.7876    1.3816 C   0  0  0  0  0  0  0  0  0  0  0  0 
    3.1921    2.3625    2.1084 C   0  0  0  0  0  0  0  0  0  0  0  0 
    4.4853    0.8052   -0.0610 C   0  0  0  0  0  0  0  0  0  0  0  0 
    2.6334    2.3999    0.6752 C   0  0  0  0  0  0  0  0  0  0  0  0 
    2.9880    1.1901   -0.2371 C   0  0  0  0  0  0  0  0  0  0  0  0 
    1.1859   -1.5600    1.2117 H   0  0  0  0  0  0  0  0  0  0  0  0 
    1.5804   -0.0907    2.1017 H   0  0  0  0  0  0  0  0  0  0  0  0 
    2.8667   -1.1984    1.6000 H   0  0  0  0  0  0  0  0  0  0  0  0 
    3.0391    0.8331   -2.4039 H   0  0  0  0  0  0  0  0  0  0  0  0 
    3.4374    2.4967   -1.9433 H   0  0  0  0  0  0  0  0  0  0  0  0 
    1.7558    1.9419   -1.8929 H   0  0  0  0  0  0  0  0  0  0  0  0 
    1.0143    0.3339   -0.3207 H   0  0  0  0  0  0  0  0  0  0  0  0 
    2.2872   -0.7617   -0.8171 H   0  0  0  0  0  0  0  0  0  0  0  0 
    5.2223    2.9296    1.6160 H   0  0  0  0  0  0  0  0  0  0  0  0 
    5.0813    2.0613    3.1436 H   0  0  0  0  0  0  0  0  0  0  0  0 
    4.5985   -0.0509    1.9473 H   0  0  0  0  0  0  0  0  0  0  0  0 
    6.1076    0.6208    1.3554 H   0  0  0  0  0  0  0  0  0  0  0  0 
    2.9718    3.3182    2.6022 H   0  0  0  0  0  0  0  0  0  0  0  0 
    2.6922    1.5888    2.7029 H   0  0  0  0  0  0  0  0  0  0  0  0 
    4.6697   -0.1637   -0.5462 H   0  0  0  0  0  0  0  0  0  0  0  0 
    5.0847    1.5390   -0.6201 H   0  0  0  0  0  0  0  0  0  0  0  0 
    3.0319    3.3061    0.1955 H   0  0  0  0  0  0  0  0  0  0  0  0 
    1.5420    2.5282    0.6972 H   0  0  0  0  0  0  0  0  0  0  0  0 
  1 12  1  0  0  0  0 
  1 11  1  0  0  0  0 
  2  9  1  0  0  0  0 
  3  1  1  0  0  0  0 
  4 19  1  0  0  0  0 
  5 20  1  0  0  0  0 
  5  4  1  0  0  0  0 
  6  4  1  0  0  0  0 
  6 22  1  0  0  0  0 
  6 23  1  0  0  0  0 
  7  5  1  0  0  0  0 
  8 27  1  0  0  0  0 
  8  6  1  0  0  0  0 
  9  7  1  0  0  0  0 
  9  3  1  0  0  0  0 
  9  8  1  0  0  0  0 
 10  1  1  0  0  0  0 
 13  2  1  0  0  0  0 
 14  2  1  0  0  0  0 
 15  2  1  0  0  0  0 
 16  3  1  0  0  0  0 
 17  3  1  0  0  0  0 
 18  4  1  0  0  0  0 
 21  5  1  0  0  0  0 
 24  7  1  0  0  0  0 
 25  7  1  0  0  0  0 
 26  8  1  0  0  0  0 
M  END 
>  <HBA> 
0 
 
>  <HBD> 
0 
 
>  <TPSA> 
0.0 
 
>  <cid> 
35411 
 
>  <dipole> 
0.06 
 
>  <excitation_energy_1> 
7.212 
 
>  <excitation_energy_2> 
7.333 
 
>  <excitation_energy_3> 
7.439 
 
>  <excitation_energy_4> 
7.519 
 
>  <homo_energy> 
-7.72 
 
>  <homo_lumo_gap> 
9.813 
 
>  <logP> 
3.367 
 
>  <lumo_energy> 
2.093 
 
>  <melting_point> 
12.71 
 
>  <molecular_refractivity> 
43.0 
 
>  <oscillator_strength_1> 
0.0062 
 
>  <oscillator_strength_2> 
0.0095 
 
>  <oscillator_strength_3> 
0.0056 
 
>  <oscillator_strength_4> 
0.0185 
 
>  <open_babel_can_smiles> 
CCC1(C)CCCCC1 
 
>  <mulliken_charges> 
27 
1   -0.456151 
2   -0.451881 
3   -0.249814 
4   -0.254247 
5   -0.2645 
6   -0.264342 
7   -0.266431 
8   -0.266501 
9   0.108232 
10   0.139262 
11   0.148707 
12   0.148712 
13   0.136345 
14   0.136242 
15   0.136318 
16   0.124883 
17   0.124858 
18   0.124214 
19   0.12737 
20   0.133733 
21   0.127524 
22   0.127486 
23   0.133817 
24   0.123983 
25   0.124082 
26   0.124113 
27   0.123987 
 
>  <lowdin_charges> 
27 
1   -0.453262 
2   -0.44177 
3   -0.272087 
4   -0.277486 
5   -0.280307 
6   -0.282634 
7   -0.279889 
8   -0.276801 
9   0.005538 
10   0.149585 
11   0.148655 
12   0.147876 
13   0.145938 
14   0.144724 
15   0.144122 
16   0.137823 
17   0.139341 
18   0.136171 
19   0.14117 
20   0.140306 
21   0.140348 
22   0.142264 
23   0.140867 
24   0.140687 
25   0.140465 
26   0.139564 
27   0.138792 
 
$$$$ 
 
