PCCDB-ID:  15278 
public computational chemistry database (PCCDB) project, http://pccdb.org 
 
 24 25  0  0  0  0  0  0  0  0999 V2000 
    1.1050    0.0251    0.1034 C   0  0  0  0  0  0  0  0  0  0  0  0 
    3.1285    0.0197   -1.4248 C   0  0  0  0  0  0  0  0  0  0  0  0 
    5.3805   -0.0513    3.8594 C   0  0  0  0  0  0  0  0  0  0  0  0 
    4.7869    0.8921    3.0176 C   0  0  0  0  0  0  0  0  0  0  0  0 
    5.2105   -1.4211    3.6253 C   0  0  0  0  0  0  0  0  0  0  0  0 
    3.2697    1.1792    0.8669 C   0  0  0  0  0  0  0  0  0  0  0  0 
    4.0245    0.4369    1.9433 C   0  0  0  0  0  0  0  0  0  0  0  0 
    4.4458   -1.8830    2.5495 C   0  0  0  0  0  0  0  0  0  0  0  0 
    3.8577   -0.9252    1.7149 C   0  0  0  0  0  0  0  0  0  0  0  0 
    2.6307    0.0297    0.0192 C   0  0  0  0  0  0  0  0  0  0  0  0 
    4.2398   -3.2060    2.2663 O   0  0  0  0  0  0  0  0  0  0  0  0 
    3.0901   -1.2277    0.6322 O   0  0  0  0  0  0  0  0  0  0  0  0 
    0.6909    0.9260   -0.3644 H   0  0  0  0  0  0  0  0  0  0  0  0 
    0.7807   -0.0021    1.1491 H   0  0  0  0  0  0  0  0  0  0  0  0 
    0.6948   -0.8522   -0.4071 H   0  0  0  0  0  0  0  0  0  0  0  0 
    2.8001    0.9236   -1.9511 H   0  0  0  0  0  0  0  0  0  0  0  0 
    2.7410   -0.8537   -1.9594 H   0  0  0  0  0  0  0  0  0  0  0  0 
    4.2226   -0.0185   -1.4515 H   0  0  0  0  0  0  0  0  0  0  0  0 
    5.9802    0.2723    4.7052 H   0  0  0  0  0  0  0  0  0  0  0  0 
    4.9183    1.9556    3.1977 H   0  0  0  0  0  0  0  0  0  0  0  0 
    5.6785   -2.1473    4.2885 H   0  0  0  0  0  0  0  0  0  0  0  0 
    3.9327    1.8036    0.2543 H   0  0  0  0  0  0  0  0  0  0  0  0 
    2.4996    1.8420    1.2807 H   0  0  0  0  0  0  0  0  0  0  0  0 
    4.7077   -3.7363    2.9298 H   0  0  0  0  0  0  0  0  0  0  0  0 
  1 14  1  0  0  0  0 
  2 10  1  0  0  0  0 
  3 19  1  0  0  0  0 
  4 20  1  0  0  0  0 
  4  3  2  0  0  0  0 
  5  3  1  0  0  0  0 
  5 21  1  0  0  0  0 
  6 23  1  0  0  0  0 
  6  7  1  0  0  0  0 
  7  4  1  0  0  0  0 
  8  5  2  0  0  0  0 
  9  7  2  0  0  0  0 
  9  8  1  0  0  0  0 
 10  1  1  0  0  0  0 
 10 12  1  0  0  0  0 
 10  6  1  0  0  0  0 
 11  8  1  0  0  0  0 
 11 24  1  0  0  0  0 
 12  9  1  0  0  0  0 
 13  1  1  0  0  0  0 
 15  1  1  0  0  0  0 
 16  2  1  0  0  0  0 
 17  2  1  0  0  0  0 
 18  2  1  0  0  0  0 
 22  6  1  0  0  0  0 
M  END 
>  <HBA> 
2 
 
>  <HBD> 
1 
 
>  <TPSA> 
29.46 
 
>  <cid> 
15278 
 
>  <dipole> 
1.1 
 
>  <excitation_energy_1> 
4.743 
 
>  <excitation_energy_2> 
4.746 
 
>  <excitation_energy_3> 
5.113 
 
>  <excitation_energy_4> 
5.345 
 
>  <homo_energy> 
-5.298 
 
>  <homo_lumo_gap> 
5.614 
 
>  <logP> 
2.106 
 
>  <lumo_energy> 
0.316 
 
>  <melting_point> 
86.51 
 
>  <molecular_refractivity> 
47.46 
 
>  <oscillator_strength_1> 
0.0394 
 
>  <oscillator_strength_2> 
0.0132 
 
>  <oscillator_strength_3> 
0.0025 
 
>  <oscillator_strength_4> 
0.0056 
 
>  <open_babel_can_smiles> 
Oc1cccc2c1OC(C2)(C)C 
 
>  <mulliken_charges> 
24 
1   -0.4505 
2   -0.452023 
3   -0.143257 
4   -0.205547 
5   -0.197708 
6   -0.388832 
7   0.107202 
8   0.274449 
9   0.33546 
10   0.314426 
11   -0.63746 
12   -0.546373 
13   0.141503 
14   0.155765 
15   0.158323 
16   0.141944 
17   0.15827 
18   0.155858 
19   0.123087 
20   0.120384 
21   0.113083 
22   0.158127 
23   0.157976 
24   0.405843 
 
>  <lowdin_charges> 
24 
1   -0.447594 
2   -0.446285 
3   -0.169181 
4   -0.178621 
5   -0.212909 
6   -0.285521 
7   -0.041236 
8   0.07341 
9   0.068995 
10   0.144468 
11   -0.377222 
12   -0.206133 
13   0.152187 
14   0.156736 
15   0.15984 
16   0.152411 
17   0.159822 
18   0.155847 
19   0.156815 
20   0.154012 
21   0.153383 
22   0.158983 
23   0.158947 
24   0.358846 
 
$$$$ 
 
