PCCDB-ID:  49859 
public computational chemistry database (PCCDB) project, http://pccdb.org 
 
 29 29  0  0  1  0  0  0  0  0999 V2000 
    4.7577    0.7373   -0.7073 C   0  0  0  0  0  0  0  0  0  0  0  0 
    4.5009   -4.3606   -3.4365 C   0  0  0  0  0  0  0  0  0  0  0  0 
    4.1730   -2.4136    0.4032 C   0  0  0  0  0  0  0  0  0  0  0  0 
    1.6821   -2.6931    0.3912 C   0  0  0  0  0  0  0  0  0  0  0  0 
    3.2543    0.4367   -0.6392 C   0  0  0  0  0  0  0  0  0  0  0  0 
    3.4233   -1.5645   -2.4488 C   0  0  0  0  0  0  0  0  0  0  0  0 
    3.8668   -4.1834   -2.0663 C   0  0  0  0  0  0  0  0  0  0  0  0 
    2.7639   -0.9069   -1.2074 C   0  0  1  0  0  0  0  0  0  0  0  0 
    3.0207   -2.9419   -1.8543 C   0  0  1  0  0  0  0  0  0  0  0  0 
    2.8970   -2.2767   -0.4384 C   0  0  0  0  0  0  0  0  0  0  0  0 
    4.0028   -5.0199   -1.1899 O   0  0  0  0  0  0  0  0  0  0  0  0 
    5.3557    0.0334   -0.1219 H   0  0  0  0  0  0  0  0  0  0  0  0 
    5.1247    0.7106   -1.7398 H   0  0  0  0  0  0  0  0  0  0  0  0 
    4.9577    1.7420   -0.3172 H   0  0  0  0  0  0  0  0  0  0  0  0 
    5.2403   -3.5716   -3.6215 H   0  0  0  0  0  0  0  0  0  0  0  0 
    3.7445   -4.2747   -4.2270 H   0  0  0  0  0  0  0  0  0  0  0  0 
    4.9880   -5.3362   -3.4949 H   0  0  0  0  0  0  0  0  0  0  0  0 
    4.1445   -1.7252    1.2564 H   0  0  0  0  0  0  0  0  0  0  0  0 
    5.0809   -2.1984   -0.1702 H   0  0  0  0  0  0  0  0  0  0  0  0 
    4.2648   -3.4336    0.7858 H   0  0  0  0  0  0  0  0  0  0  0  0 
    1.5858   -2.0709    1.2906 H   0  0  0  0  0  0  0  0  0  0  0  0 
    1.7746   -3.7367    0.7140 H   0  0  0  0  0  0  0  0  0  0  0  0 
    0.7521   -2.5969   -0.1828 H   0  0  0  0  0  0  0  0  0  0  0  0 
    2.7288    1.2378   -1.1777 H   0  0  0  0  0  0  0  0  0  0  0  0 
    2.9133    0.5153    0.4033 H   0  0  0  0  0  0  0  0  0  0  0  0 
    4.5104   -1.4313   -2.4555 H   0  0  0  0  0  0  0  0  0  0  0  0 
    3.0353   -1.2982   -3.4374 H   0  0  0  0  0  0  0  0  0  0  0  0 
    1.6937   -0.7888   -1.4274 H   0  0  0  0  0  0  0  0  0  0  0  0 
    2.0130   -3.2015   -2.2144 H   0  0  0  0  0  0  0  0  0  0  0  0 
  1  5  1  0  0  0  0 
  1 14  1  0  0  0  0 
  1 12  1  0  0  0  0 
  2  7  1  0  0  0  0 
  3 20  1  0  0  0  0 
  3 18  1  0  0  0  0 
  4 22  1  0  0  0  0 
  4 21  1  0  0  0  0 
  5 25  1  0  0  0  0 
  6  9  1  0  0  0  0 
  6  8  1  0  0  0  0 
  7  9  1  0  0  0  0 
  7 11  2  0  0  0  0 
  8 28  1  6  0  0  0 
  8  5  1  0  0  0  0 
  8 10  1  0  0  0  0 
  9 29  1  6  0  0  0 
  9 10  1  0  0  0  0 
 10  4  1  0  0  0  0 
 10  3  1  0  0  0  0 
 13  1  1  0  0  0  0 
 15  2  1  0  0  0  0 
 16  2  1  0  0  0  0 
 17  2  1  0  0  0  0 
 19  3  1  0  0  0  0 
 23  4  1  0  0  0  0 
 24  5  1  0  0  0  0 
 26  6  1  0  0  0  0 
 27  6  1  0  0  0  0 
M  END 
>  <HBA> 
1 
 
>  <HBD> 
0 
 
>  <TPSA> 
17.07 
 
>  <cid> 
49859 
 
>  <dipole> 
2.62 
 
>  <excitation_energy_1> 
4.254 
 
>  <excitation_energy_2> 
5.881 
 
>  <excitation_energy_3> 
6.308 
 
>  <excitation_energy_4> 
6.39 
 
>  <homo_energy> 
-6.373 
 
>  <homo_lumo_gap> 
6.101 
 
>  <logP> 
2.648 
 
>  <lumo_energy> 
-0.272 
 
>  <melting_point> 
33.44 
 
>  <molecular_refractivity> 
48.01 
 
>  <oscillator_strength_1> 
0.0005 
 
>  <oscillator_strength_2> 
0.0183 
 
>  <oscillator_strength_3> 
0.0207 
 
>  <oscillator_strength_4> 
0.0012 
 
>  <open_babel_can_smiles> 
CC[C@H]1C[C@H](C1(C)C)C(=O)C 
 
>  <mulliken_charges> 
29 
1   -0.452005 
2   -0.531113 
3   -0.469438 
4   -0.464412 
5   -0.264052 
6   -0.305401 
7   0.451225 
8   -0.080658 
9   -0.194129 
10   0.113372 
11   -0.450011 
12   0.152186 
13   0.142411 
14   0.142303 
15   0.171296 
16   0.164648 
17   0.176957 
18   0.137768 
19   0.135345 
20   0.174975 
21   0.139342 
22   0.161247 
23   0.13164 
24   0.131876 
25   0.135921 
26   0.141836 
27   0.135573 
28   0.118409 
29   0.15289 
 
>  <lowdin_charges> 
29 
1   -0.450685 
2   -0.476334 
3   -0.447455 
4   -0.445064 
5   -0.278014 
6   -0.288248 
7   0.165427 
8   -0.1296 
9   -0.16571 
10   0.016605 
11   -0.242501 
12   0.152619 
13   0.145316 
14   0.150194 
15   0.17151 
16   0.168074 
17   0.171038 
18   0.147494 
19   0.145029 
20   0.165 
21   0.147833 
22   0.15765 
23   0.14239 
24   0.145201 
25   0.143354 
26   0.143374 
27   0.142487 
28   0.139709 
29   0.163306 
 
$$$$ 
 
