PCCDB-ID:  45367 
public computational chemistry database (PCCDB) project, http://pccdb.org 
 
 38 38  0  0  0  0  0  0  0  0999 V2000 
    6.4804    2.3615    0.5878 C   0  0  0  0  0  0  0  0  0  0  0  0 
    7.6160   -2.6964   -0.6850 C   0  0  0  0  0  0  0  0  0  0  0  0 
   11.4887   -0.5976   -3.7787 C   0  0  0  0  0  0  0  0  0  0  0  0 
    6.0209    1.2929   -0.3977 C   0  0  0  0  0  0  0  0  0  0  0  0 
    8.4288   -1.4389   -0.9364 C   0  0  0  0  0  0  0  0  0  0  0  0 
    9.8702    4.3168   -3.7381 C   0  0  0  0  0  0  0  0  0  0  0  0 
   10.6615    5.0627   -2.6479 C   0  0  0  0  0  0  0  0  0  0  0  0 
   10.0784    1.8157   -3.3979 C   0  0  0  0  0  0  0  0  0  0  0  0 
    8.0492    2.9024   -2.6934 C   0  0  0  0  0  0  0  0  0  0  0  0 
    9.3128    2.9858   -3.2765 C   0  0  0  0  0  0  0  0  0  0  0  0 
    9.5805    0.5880   -2.9537 C   0  0  0  0  0  0  0  0  0  0  0  0 
    7.5466    1.6829   -2.2250 C   0  0  0  0  0  0  0  0  0  0  0  0 
    8.3093    0.5077   -2.3407 C   0  0  0  0  0  0  0  0  0  0  0  0 
   11.8610    4.3108   -2.2631 N   0  0  0  0  0  0  0  0  0  0  0  0 
   10.2458   -0.6002   -3.0939 O   0  0  0  0  0  0  0  0  0  0  0  0 
    6.2527    1.6705   -1.7628 O   0  0  0  0  0  0  0  0  0  0  0  0 
    7.7567   -0.6940   -1.9686 O   0  0  0  0  0  0  0  0  0  0  0  0 
    6.2412    2.0574    1.6139 H   0  0  0  0  0  0  0  0  0  0  0  0 
    5.9822    3.3155    0.3852 H   0  0  0  0  0  0  0  0  0  0  0  0 
    7.5624    2.5198    0.5235 H   0  0  0  0  0  0  0  0  0  0  0  0 
    6.5977   -2.4499   -0.3665 H   0  0  0  0  0  0  0  0  0  0  0  0 
    8.0884   -3.3011    0.0974 H   0  0  0  0  0  0  0  0  0  0  0  0 
    7.5518   -3.2977   -1.5975 H   0  0  0  0  0  0  0  0  0  0  0  0 
   12.2411    0.0054   -3.2535 H   0  0  0  0  0  0  0  0  0  0  0  0 
   11.3809   -0.2230   -4.8046 H   0  0  0  0  0  0  0  0  0  0  0  0 
   11.8150   -1.6390   -3.8058 H   0  0  0  0  0  0  0  0  0  0  0  0 
    4.9372    1.1539   -0.3370 H   0  0  0  0  0  0  0  0  0  0  0  0 
    6.4930    0.3294   -0.1865 H   0  0  0  0  0  0  0  0  0  0  0  0 
    9.4455   -1.6838   -1.2548 H   0  0  0  0  0  0  0  0  0  0  0  0 
    8.4933   -0.8227   -0.0269 H   0  0  0  0  0  0  0  0  0  0  0  0 
   10.5353    4.1664   -4.5965 H   0  0  0  0  0  0  0  0  0  0  0  0 
    9.0477    4.9628   -4.0693 H   0  0  0  0  0  0  0  0  0  0  0  0 
    9.9813    5.2847   -1.8056 H   0  0  0  0  0  0  0  0  0  0  0  0 
   10.9896    6.0271   -3.0554 H   0  0  0  0  0  0  0  0  0  0  0  0 
   11.0569    1.8773   -3.8600 H   0  0  0  0  0  0  0  0  0  0  0  0 
    7.4154    3.7793   -2.5990 H   0  0  0  0  0  0  0  0  0  0  0  0 
   11.5784    3.4513   -1.7935 H   0  0  0  0  0  0  0  0  0  0  0  0 
   12.3952    4.8453   -1.5798 H   0  0  0  0  0  0  0  0  0  0  0  0 
  1 18  1  0  0  0  0 
  2 21  1  0  0  0  0 
  2 22  1  0  0  0  0 
  3 24  1  0  0  0  0 
  3 15  1  0  0  0  0 
  4 27  1  0  0  0  0 
  4 28  1  0  0  0  0 
  4  1  1  0  0  0  0 
  5  2  1  0  0  0  0 
  5 30  1  0  0  0  0 
  6 10  1  0  0  0  0 
  6  7  1  0  0  0  0 
  7 14  1  0  0  0  0 
  7 33  1  0  0  0  0 
  8 10  2  0  0  0  0 
  8 11  1  0  0  0  0 
  9 36  1  0  0  0  0 
  9 12  2  0  0  0  0 
 10  9  1  0  0  0  0 
 11 13  2  0  0  0  0 
 12 16  1  0  0  0  0 
 13 12  1  0  0  0  0 
 13 17  1  0  0  0  0 
 14 37  1  0  0  0  0 
 14 38  1  0  0  0  0 
 15 11  1  0  0  0  0 
 16  4  1  0  0  0  0 
 17  5  1  0  0  0  0 
 19  1  1  0  0  0  0 
 20  1  1  0  0  0  0 
 23  2  1  0  0  0  0 
 25  3  1  0  0  0  0 
 26  3  1  0  0  0  0 
 29  5  1  0  0  0  0 
 31  6  1  0  0  0  0 
 32  6  1  0  0  0  0 
 34  7  1  0  0  0  0 
 35  8  1  0  0  0  0 
M  END 
>  <HBA> 
4 
 
>  <HBD> 
1 
 
>  <TPSA> 
53.71 
 
>  <cid> 
45367 
 
>  <dipole> 
2.99 
 
>  <excitation_energy_1> 
4.893 
 
>  <excitation_energy_2> 
5.12 
 
>  <excitation_energy_3> 
5.338 
 
>  <excitation_energy_4> 
5.429 
 
>  <homo_energy> 
-5.608 
 
>  <homo_lumo_gap> 
5.864 
 
>  <logP> 
2.694 
 
>  <lumo_energy> 
0.256 
 
>  <melting_point> 
77.73 
 
>  <molecular_refractivity> 
68.01 
 
>  <oscillator_strength_1> 
0.008 
 
>  <oscillator_strength_2> 
0.0418 
 
>  <oscillator_strength_3> 
0.0583 
 
>  <oscillator_strength_4> 
0.0072 
 
>  <open_babel_can_smiles> 
NCCc1cc(OCC)c(c(c1)OC)OCC 
 
>  <mulliken_charges> 
38 
1   -0.459338 
2   -0.459065 
3   -0.214271 
4   -0.037216 
5   -0.027085 
6   -0.33129 
7   -0.1306 
8   -0.279928 
9   -0.250486 
10   0.153897 
11   0.352739 
12   0.335202 
13   0.263717 
14   -0.721689 
15   -0.51393 
16   -0.530921 
17   -0.533428 
18   0.142212 
19   0.155666 
20   0.154311 
21   0.156775 
22   0.14291 
23   0.16414 
24   0.15376 
25   0.157565 
26   0.167702 
27   0.147383 
28   0.15302 
29   0.161159 
30   0.119597 
31   0.150346 
32   0.140691 
33   0.117324 
34   0.138102 
35   0.142154 
36   0.123986 
37   0.299849 
38   0.295039 
 
>  <lowdin_charges> 
38 
1   -0.457987 
2   -0.449409 
3   -0.275479 
4   -0.120051 
5   -0.126001 
6   -0.277254 
7   -0.20207 
8   -0.23413 
9   -0.20742 
10   -0.002252 
11   0.079456 
12   0.082681 
13   0.038227 
14   -0.566428 
15   -0.197776 
16   -0.221144 
17   -0.221882 
18   0.153122 
19   0.154749 
20   0.152422 
21   0.153659 
22   0.155271 
23   0.160317 
24   0.146956 
25   0.147651 
26   0.16052 
27   0.147356 
28   0.144495 
29   0.147707 
30   0.125819 
31   0.155162 
32   0.152777 
33   0.119716 
34   0.14229 
35   0.166528 
36   0.162079 
37   0.254821 
38   0.255502 
 
$$$$ 
 
