PCCDB-ID:  34720 
public computational chemistry database (PCCDB) project, http://pccdb.org 
 
 29 29  0  0  1  0  0  0  0  0999 V2000 
    1.7959    0.0494    1.3979 C   0  0  0  0  0  0  0  0  0  0  0  0 
    0.2258   -4.1099   -0.8802 C   0  0  0  0  0  0  0  0  0  0  0  0 
    2.9620   -4.9937    0.3892 C   0  0  0  0  0  0  0  0  0  0  0  0 
    2.4361   -0.2276    0.0346 C   0  0  0  0  0  0  0  0  0  0  0  0 
    1.6129   -3.9860   -1.5185 C   0  0  0  0  0  0  0  0  0  0  0  0 
    3.9259   -1.8313   -1.3429 C   0  0  0  0  0  0  0  0  0  0  0  0 
    3.2826   -1.4978    0.0096 C   0  0  2  0  0  0  0  0  0  0  0  0 
    4.0659   -3.3591   -1.2795 C   0  0  2  0  0  0  0  0  0  0  0  0 
    2.7733   -3.7760   -0.5155 C   0  0  2  0  0  0  0  0  0  0  0  0 
    5.2792   -3.7571   -0.6471 O   0  0  0  0  0  0  0  0  0  0  0  0 
    2.4673   -2.6364    0.3318 O   0  0  0  0  0  0  0  0  0  0  0  0 
    1.1842    0.9580    1.3689 H   0  0  0  0  0  0  0  0  0  0  0  0 
    2.5595    0.1858    2.1739 H   0  0  0  0  0  0  0  0  0  0  0  0 
    1.1569   -0.7860    1.6998 H   0  0  0  0  0  0  0  0  0  0  0  0 
   -0.5485   -4.1652   -1.6536 H   0  0  0  0  0  0  0  0  0  0  0  0 
    0.0176   -3.2424   -0.2467 H   0  0  0  0  0  0  0  0  0  0  0  0 
    0.1368   -5.0094   -0.2620 H   0  0  0  0  0  0  0  0  0  0  0  0 
    3.1621   -5.8928   -0.2040 H   0  0  0  0  0  0  0  0  0  0  0  0 
    2.0631   -5.1626    0.9885 H   0  0  0  0  0  0  0  0  0  0  0  0 
    3.8014   -4.8510    1.0737 H   0  0  0  0  0  0  0  0  0  0  0  0 
    3.0757    0.6166   -0.2597 H   0  0  0  0  0  0  0  0  0  0  0  0 
    1.6570   -0.3202   -0.7341 H   0  0  0  0  0  0  0  0  0  0  0  0 
    1.6019   -3.1427   -2.2217 H   0  0  0  0  0  0  0  0  0  0  0  0 
    1.8321   -4.8825   -2.1147 H   0  0  0  0  0  0  0  0  0  0  0  0 
    4.8934   -1.3459   -1.4995 H   0  0  0  0  0  0  0  0  0  0  0  0 
    3.2583   -1.5347   -2.1607 H   0  0  0  0  0  0  0  0  0  0  0  0 
    4.0674   -1.4039    0.7839 H   0  0  0  0  0  0  0  0  0  0  0  0 
    4.1058   -3.8233   -2.2686 H   0  0  0  0  0  0  0  0  0  0  0  0 
    5.3058   -3.3544    0.2357 H   0  0  0  0  0  0  0  0  0  0  0  0 
  1 14  1  0  0  0  0 
  1 13  1  0  0  0  0 
  2 17  1  0  0  0  0 
  2 16  1  0  0  0  0 
  3 19  1  0  0  0  0 
  3 20  1  0  0  0  0 
  4  1  1  0  0  0  0 
  5  2  1  0  0  0  0 
  6  8  1  0  0  0  0 
  6  7  1  0  0  0  0 
  7  4  1  0  0  0  0 
  7 11  1  0  0  0  0 
  7 27  1  1  0  0  0 
  8 28  1  6  0  0  0 
  8 10  1  0  0  0  0 
  8  9  1  0  0  0  0 
  9  5  1  6  0  0  0 
  9 11  1  0  0  0  0 
  9  3  1  0  0  0  0 
 10 29  1  0  0  0  0 
 12  1  1  0  0  0  0 
 15  2  1  0  0  0  0 
 18  3  1  0  0  0  0 
 21  4  1  0  0  0  0 
 22  4  1  0  0  0  0 
 23  5  1  0  0  0  0 
 24  5  1  0  0  0  0 
 25  6  1  0  0  0  0 
 26  6  1  0  0  0  0 
M  END 
>  <HBA> 
2 
 
>  <HBD> 
1 
 
>  <TPSA> 
29.46 
 
>  <cid> 
34720 
 
>  <dipole> 
1.07 
 
>  <excitation_energy_1> 
6.001 
 
>  <excitation_energy_2> 
6.335 
 
>  <excitation_energy_3> 
6.494 
 
>  <excitation_energy_4> 
6.621 
 
>  <homo_energy> 
-6.591 
 
>  <homo_lumo_gap> 
8.261 
 
>  <logP> 
1.715 
 
>  <lumo_energy> 
1.671 
 
>  <melting_point> 
14.71 
 
>  <molecular_refractivity> 
45.55 
 
>  <oscillator_strength_1> 
0.0211 
 
>  <oscillator_strength_2> 
0.0211 
 
>  <oscillator_strength_3> 
0.0026 
 
>  <oscillator_strength_4> 
0.0164 
 
>  <open_babel_can_smiles> 
CC[C@@H]1C[C@H]([C@](O1)(C)CC)O 
 
>  <mulliken_charges> 
29 
1   -0.44749 
2   -0.451468 
3   -0.44269 
4   -0.259803 
5   -0.265635 
6   -0.32484 
7   0.16553 
8   0.105402 
9   0.310186 
10   -0.632929 
11   -0.541656 
12   0.141017 
13   0.138453 
14   0.167709 
15   0.139236 
16   0.163905 
17   0.144442 
18   0.144016 
19   0.154549 
20   0.135197 
21   0.129749 
22   0.135453 
23   0.128688 
24   0.130741 
25   0.152788 
26   0.144731 
27   0.100344 
28   0.139691 
29   0.394686 
 
>  <lowdin_charges> 
29 
1   -0.44772 
2   -0.449413 
3   -0.447485 
4   -0.280392 
5   -0.284023 
6   -0.312278 
7   -0.000127 
8   -0.014244 
9   0.107489 
10   -0.452183 
11   -0.289078 
12   0.149657 
13   0.146284 
14   0.159965 
15   0.150003 
16   0.157998 
17   0.147787 
18   0.155017 
19   0.157736 
20   0.150876 
21   0.144799 
22   0.144795 
23   0.14118 
24   0.143576 
25   0.158644 
26   0.152853 
27   0.117246 
28   0.150047 
29   0.340993 
 
$$$$ 
 
