PCCDB-ID:  42486 
public computational chemistry database (PCCDB) project, http://pccdb.org 
 
 15 15  0  0  1  0  0  0  0  0999 V2000 
   -0.7750   -0.9694   -0.1764 C   0  0  0  0  0  0  0  0  0  0  0  0 
    0.6684   -1.2937    0.2716 C   0  0  0  0  0  0  0  0  0  0  0  0 
    0.0334    1.2490   -0.3164 C   0  0  1  0  0  0  0  0  0  0  0  0 
   -0.1868    1.6980   -1.7873 C   0  0  0  0  0  0  0  0  0  0  0  0 
   -1.0641    0.4290    0.1307 N   0  0  0  0  0  0  0  0  0  0  0  0 
   -0.9960    2.5529   -2.0429 O   0  0  0  0  0  0  0  0  0  0  0  0 
    0.5355    1.0792   -2.7368 O   0  0  0  0  0  0  0  0  0  0  0  0 
    1.6391    0.2337   -0.0788 S   0  0  0  0  0  0  0  0  0  0  0  0 
   -1.5087   -1.6150    0.3154 H   0  0  0  0  0  0  0  0  0  0  0  0 
   -0.8690   -1.1168   -1.2582 H   0  0  0  0  0  0  0  0  0  0  0  0 
    1.0960   -2.1354   -0.2790 H   0  0  0  0  0  0  0  0  0  0  0  0 
    0.7188   -1.5116    1.3427 H   0  0  0  0  0  0  0  0  0  0  0  0 
    0.0970    2.1590    0.2810 H   0  0  0  0  0  0  0  0  0  0  0  0 
   -1.1965    0.5477    1.1326 H   0  0  0  0  0  0  0  0  0  0  0  0 
    1.1887    0.4967   -2.2880 H   0  0  0  0  0  0  0  0  0  0  0  0 
  1  5  1  0  0  0  0 
  1  2  1  0  0  0  0 
  1  9  1  0  0  0  0 
  2 12  1  0  0  0  0 
  3  8  1  0  0  0  0 
  3  5  1  0  0  0  0 
  3 13  1  1  0  0  0 
  4  3  1  0  0  0  0 
  5 14  1  0  0  0  0 
  6  4  2  0  0  0  0 
  7 15  1  0  0  0  0 
  7  4  1  0  0  0  0 
  8  2  1  0  0  0  0 
 10  1  1  0  0  0  0 
 11  2  1  0  0  0  0 
M  END 
>  <HBA> 
4 
 
>  <HBD> 
2 
 
>  <TPSA> 
74.63 
 
>  <cid> 
42486 
 
>  <dipole> 
5.23 
 
>  <excitation_energy_1> 
5.099 
 
>  <excitation_energy_2> 
5.23 
 
>  <excitation_energy_3> 
5.437 
 
>  <excitation_energy_4> 
5.894 
 
>  <homo_energy> 
-6.738 
 
>  <homo_lumo_gap> 
6.637 
 
>  <logP> 
0.062 
 
>  <lumo_energy> 
-0.101 
 
>  <melting_point> 
110.65 
 
>  <molecular_refractivity> 
35.31 
 
>  <oscillator_strength_1> 
0.0003 
 
>  <oscillator_strength_2> 
0.0004 
 
>  <oscillator_strength_3> 
0.0018 
 
>  <oscillator_strength_4> 
0.0096 
 
>  <open_babel_can_smiles> 
OC(=O)[C@H]1NCCS1 
 
>  <mulliken_charges> 
15 
1   -0.169814 
2   -0.419893 
3   -0.237985 
4   0.615822 
5   -0.483728 
6   -0.43227 
7   -0.56229 
8   0.021954 
9   0.170447 
10   0.178427 
11   0.18885 
12   0.181316 
13   0.204413 
14   0.320319 
15   0.424432 
 
>  <lowdin_charges> 
15 
1   -0.212224 
2   -0.3878 
3   -0.189289 
4   0.173885 
5   -0.306766 
6   -0.229238 
7   -0.349708 
8   0.041035 
9   0.165048 
10   0.157435 
11   0.174587 
12   0.160282 
13   0.186065 
14   0.267104 
15   0.349585 
 
$$$$ 
 
