PCCDB-ID:  14348 
public computational chemistry database (PCCDB) project, http://pccdb.org 
 
 30 31  0  0  0  0  0  0  0  0999 V2000 
    2.5620   -1.6697    0.6105 C   0  0  0  0  0  0  0  0  0  0  0  0 
    1.1360    0.1255   -0.3579 C   0  0  0  0  0  0  0  0  0  0  0  0 
    6.8529    5.6284    4.6155 C   0  0  0  0  0  0  0  0  0  0  0  0 
    7.4785    4.4823    4.1213 C   0  0  0  0  0  0  0  0  0  0  0  0 
    5.4837    5.8035    4.4059 C   0  0  0  0  0  0  0  0  0  0  0  0 
    6.7441    3.5251    3.4231 C   0  0  0  0  0  0  0  0  0  0  0  0 
    4.7490    4.8424    3.7134 C   0  0  0  0  0  0  0  0  0  0  0  0 
    3.5199    3.0180    1.6196 C   0  0  0  0  0  0  0  0  0  0  0  0 
    4.8688    1.2934    2.5740 C   0  0  0  0  0  0  0  0  0  0  0  0 
    2.7832    2.0690    0.9209 C   0  0  0  0  0  0  0  0  0  0  0  0 
    4.1426    0.3299    1.8841 C   0  0  0  0  0  0  0  0  0  0  0  0 
    5.3637    3.6838    3.2054 C   0  0  0  0  0  0  0  0  0  0  0  0 
    4.5840    2.6639    2.4641 C   0  0  0  0  0  0  0  0  0  0  0  0 
    3.0817    0.6914    1.0233 C   0  0  0  0  0  0  0  0  0  0  0  0 
    2.3710   -0.2629    0.3021 N   0  0  0  0  0  0  0  0  0  0  0  0 
    1.9504   -2.2695   -0.0668 H   0  0  0  0  0  0  0  0  0  0  0  0 
    2.2834   -1.9264    1.6460 H   0  0  0  0  0  0  0  0  0  0  0  0 
    3.6068   -1.9647    0.4585 H   0  0  0  0  0  0  0  0  0  0  0  0 
    0.7222   -0.7407   -0.8784 H   0  0  0  0  0  0  0  0  0  0  0  0 
    1.3203    0.9027   -1.1087 H   0  0  0  0  0  0  0  0  0  0  0  0 
    0.3740    0.5036    0.3432 H   0  0  0  0  0  0  0  0  0  0  0  0 
    7.4257    6.3766    5.1569 H   0  0  0  0  0  0  0  0  0  0  0  0 
    8.5455    4.3369    4.2708 H   0  0  0  0  0  0  0  0  0  0  0  0 
    4.9823    6.6873    4.7923 H   0  0  0  0  0  0  0  0  0  0  0  0 
    7.2502    2.6537    3.0167 H   0  0  0  0  0  0  0  0  0  0  0  0 
    3.6784    4.9770    3.5852 H   0  0  0  0  0  0  0  0  0  0  0  0 
    3.2709    4.0674    1.4852 H   0  0  0  0  0  0  0  0  0  0  0  0 
    5.6586    0.9644    3.2442 H   0  0  0  0  0  0  0  0  0  0  0  0 
    1.9753    2.4095    0.2842 H   0  0  0  0  0  0  0  0  0  0  0  0 
    4.4008   -0.7124    2.0288 H   0  0  0  0  0  0  0  0  0  0  0  0 
  1 17  1  0  0  0  0 
  2 15  1  0  0  0  0 
  2 21  1  0  0  0  0 
  3 22  1  0  0  0  0 
  4 23  1  0  0  0  0 
  4  3  2  0  0  0  0 
  5  3  1  0  0  0  0 
  5 24  1  0  0  0  0 
  6  4  1  0  0  0  0 
  7  5  2  0  0  0  0 
  8 13  2  0  0  0  0 
  9 28  1  0  0  0  0 
 10 14  2  0  0  0  0 
 10  8  1  0  0  0  0 
 11 30  1  0  0  0  0 
 11  9  2  0  0  0  0 
 12  6  2  0  0  0  0 
 12  7  1  0  0  0  0 
 13  9  1  0  0  0  0 
 13 12  1  0  0  0  0 
 14 11  1  0  0  0  0 
 15  1  1  0  0  0  0 
 15 14  1  0  0  0  0 
 16  1  1  0  0  0  0 
 18  1  1  0  0  0  0 
 19  2  1  0  0  0  0 
 20  2  1  0  0  0  0 
 25  6  1  0  0  0  0 
 26  7  1  0  0  0  0 
 27  8  1  0  0  0  0 
 29 10  1  0  0  0  0 
M  END 
>  <HBA> 
1 
 
>  <HBD> 
0 
 
>  <TPSA> 
3.24 
 
>  <cid> 
14348 
 
>  <dipole> 
2.53 
 
>  <excitation_energy_1> 
4.141 
 
>  <excitation_energy_2> 
4.252 
 
>  <excitation_energy_3> 
4.422 
 
>  <excitation_energy_4> 
4.451 
 
>  <homo_energy> 
-4.931 
 
>  <homo_lumo_gap> 
4.637 
 
>  <logP> 
3.42 
 
>  <lumo_energy> 
-0.294 
 
>  <melting_point> 
50.94 
 
>  <molecular_refractivity> 
66.08 
 
>  <oscillator_strength_1> 
0.5771 
 
>  <oscillator_strength_2> 
0.012 
 
>  <oscillator_strength_3> 
0.0247 
 
>  <oscillator_strength_4> 
0.0205 
 
>  <open_babel_can_smiles> 
CN(c1ccc(cc1)c1ccccc1)C 
 
>  <mulliken_charges> 
30 
1   -0.310162 
2   -0.310248 
3   -0.129619 
4   -0.133875 
5   -0.133953 
6   -0.177008 
7   -0.177201 
8   -0.187212 
9   -0.187645 
10   -0.198715 
11   -0.19934 
12   0.093274 
13   0.090734 
14   0.369682 
15   -0.472577 
16   0.153648 
17   0.150323 
18   0.164092 
19   0.153537 
20   0.164076 
21   0.150574 
22   0.124407 
23   0.125402 
24   0.125314 
25   0.127235 
26   0.126866 
27   0.126913 
28   0.127028 
29   0.122111 
30   0.122339 
 
>  <lowdin_charges> 
30 
1   -0.349082 
2   -0.352419 
3   -0.165625 
4   -0.154151 
5   -0.156666 
6   -0.166769 
7   -0.164284 
8   -0.149528 
9   -0.151391 
10   -0.206888 
11   -0.206751 
12   0.002995 
13   -0.03183 
14   0.057484 
15   -0.118556 
16   0.158064 
17   0.139659 
18   0.152728 
19   0.157512 
20   0.154138 
21   0.142265 
22   0.156878 
23   0.153821 
24   0.156114 
25   0.157575 
26   0.154861 
27   0.155715 
28   0.15776 
29   0.15912 
30   0.157254 
 
$$$$ 
 
