PCCDB-ID:  11229 
public computational chemistry database (PCCDB) project, http://pccdb.org 
 
 23 22  0  0  0  0  0  0  0  0999 V2000 
    3.0918    0.9353   -0.9396 C   0  0  0  0  0  0  0  0  0  0  0  0 
    5.3715   -1.0928    1.1376 C   0  0  0  0  0  0  0  0  0  0  0  0 
    2.4781   -2.3315    1.1585 C   0  0  0  0  0  0  0  0  0  0  0  0 
    2.4952   -2.1327   -1.3321 C   0  0  0  0  0  0  0  0  0  0  0  0 
    2.5951   -0.0544    0.1221 C   0  0  0  0  0  0  0  0  0  0  0  0 
    4.6012   -1.6616   -0.0610 C   0  0  0  0  0  0  0  0  0  0  0  0 
    3.0545   -1.5303   -0.0267 C   0  0  0  0  0  0  0  0  0  0  0  0 
    2.6897    1.9362   -0.7442 H   0  0  0  0  0  0  0  0  0  0  0  0 
    2.7759    0.6484   -1.9488 H   0  0  0  0  0  0  0  0  0  0  0  0 
    4.1843    1.0188   -0.9447 H   0  0  0  0  0  0  0  0  0  0  0  0 
    6.4477   -1.2574    1.0103 H   0  0  0  0  0  0  0  0  0  0  0  0 
    5.0786   -1.5697    2.0794 H   0  0  0  0  0  0  0  0  0  0  0  0 
    5.2186   -0.0135    1.2504 H   0  0  0  0  0  0  0  0  0  0  0  0 
    1.3814   -2.3012    1.1521 H   0  0  0  0  0  0  0  0  0  0  0  0 
    2.8106   -1.9315    2.1231 H   0  0  0  0  0  0  0  0  0  0  0  0 
    2.7821   -3.3847    1.1089 H   0  0  0  0  0  0  0  0  0  0  0  0 
    1.4013   -2.0547   -1.3660 H   0  0  0  0  0  0  0  0  0  0  0  0 
    2.7555   -3.1953   -1.4129 H   0  0  0  0  0  0  0  0  0  0  0  0 
    2.8950   -1.6300   -2.2201 H   0  0  0  0  0  0  0  0  0  0  0  0 
    1.4957   -0.0450    0.1261 H   0  0  0  0  0  0  0  0  0  0  0  0 
    2.8962    0.3113    1.1131 H   0  0  0  0  0  0  0  0  0  0  0  0 
    4.8445   -2.7290   -0.1622 H   0  0  0  0  0  0  0  0  0  0  0  0 
    4.9743   -1.1859   -0.9779 H   0  0  0  0  0  0  0  0  0  0  0  0 
  1  8  1  0  0  0  0 
  1  5  1  0  0  0  0 
  2 13  1  0  0  0  0 
  2 12  1  0  0  0  0 
  3 15  1  0  0  0  0 
  4  7  1  0  0  0  0 
  5 20  1  0  0  0  0 
  5 21  1  0  0  0  0 
  6  7  1  0  0  0  0 
  6  2  1  0  0  0  0 
  7  5  1  0  0  0  0 
  7  3  1  0  0  0  0 
  9  1  1  0  0  0  0 
 10  1  1  0  0  0  0 
 11  2  1  0  0  0  0 
 14  3  1  0  0  0  0 
 16  3  1  0  0  0  0 
 17  4  1  0  0  0  0 
 18  4  1  0  0  0  0 
 19  4  1  0  0  0  0 
 22  6  1  0  0  0  0 
 23  6  1  0  0  0  0 
M  END 
>  <HBA> 
0 
 
>  <HBD> 
0 
 
>  <TPSA> 
0.0 
 
>  <cid> 
11229 
 
>  <dipole> 
0.05 
 
>  <excitation_energy_1> 
7.611 
 
>  <excitation_energy_2> 
7.778 
 
>  <excitation_energy_3> 
7.835 
 
>  <excitation_energy_4> 
8.042 
 
>  <homo_energy> 
-8.09 
 
>  <homo_lumo_gap> 
10.153 
 
>  <logP> 
2.833 
 
>  <lumo_energy> 
2.063 
 
>  <melting_point> 
-8.54 
 
>  <molecular_refractivity> 
35.5 
 
>  <oscillator_strength_1> 
0.0232 
 
>  <oscillator_strength_2> 
0.0083 
 
>  <oscillator_strength_3> 
0.0211 
 
>  <oscillator_strength_4> 
0.0003 
 
>  <open_babel_can_smiles> 
CCC(CC)(C)C 
 
>  <mulliken_charges> 
23 
1   -0.455896 
2   -0.455662 
3   -0.449074 
4   -0.448993 
5   -0.249442 
6   -0.249846 
7   0.109237 
8   0.141411 
9   0.145337 
10   0.146274 
11   0.141392 
12   0.145341 
13   0.146153 
14   0.136582 
15   0.140492 
16   0.13524 
17   0.135262 
18   0.136609 
19   0.140414 
20   0.124939 
21   0.129554 
22   0.124934 
23   0.129744 
 
>  <lowdin_charges> 
23 
1   -0.446363 
2   -0.446276 
3   -0.440041 
4   -0.440873 
5   -0.272845 
6   -0.274394 
7   0.010455 
8   0.149839 
9   0.146979 
10   0.14549 
11   0.148725 
12   0.147757 
13   0.145665 
14   0.14442 
15   0.146351 
16   0.144065 
17   0.143449 
18   0.145013 
19   0.147007 
20   0.137337 
21   0.139644 
22   0.138021 
23   0.140576 
 
$$$$ 
 
