PCCDB-ID:  56966 
public computational chemistry database (PCCDB) project, http://pccdb.org 
 
 33 33  0  0  0  0  0  0  0  0999 V2000 
    0.5018    0.4991   -2.0710 C   0  0  0  0  0  0  0  0  0  0  0  0 
   12.3078   -1.6015    1.3246 C   0  0  0  0  0  0  0  0  0  0  0  0 
    1.1300    1.1091   -0.8266 C   0  0  0  0  0  0  0  0  0  0  0  0 
    4.6043   -0.9724    0.3208 C   0  0  0  0  0  0  0  0  0  0  0  0 
    5.9115    0.3592   -1.2071 C   0  0  0  0  0  0  0  0  0  0  0  0 
    5.7484   -1.6598    0.6950 C   0  0  0  0  0  0  0  0  0  0  0  0 
    7.0644   -0.3223   -0.8339 C   0  0  0  0  0  0  0  0  0  0  0  0 
    9.4826   -1.6615    0.2662 C   0  0  0  0  0  0  0  0  0  0  0  0 
    4.6697    0.0488   -0.6405 C   0  0  0  0  0  0  0  0  0  0  0  0 
    6.9982   -1.3514    0.1218 C   0  0  0  0  0  0  0  0  0  0  0  0 
   10.4541   -2.8283    0.4698 C   0  0  0  0  0  0  0  0  0  0  0  0 
    3.4820    0.8223   -1.0807 C   0  0  0  0  0  0  0  0  0  0  0  0 
   11.6410   -2.8137    0.9046 N   0  0  0  0  0  0  0  0  0  0  0  0 
    8.1121   -2.1163    0.5021 N   0  0  0  0  0  0  0  0  0  0  0  0 
    9.9334   -4.0219    0.0720 O   0  0  0  0  0  0  0  0  0  0  0  0 
    3.5138    1.7183   -1.9046 O   0  0  0  0  0  0  0  0  0  0  0  0 
    2.3470    0.4206   -0.4570 O   0  0  0  0  0  0  0  0  0  0  0  0 
   -0.4549    0.9904   -2.2833 H   0  0  0  0  0  0  0  0  0  0  0  0 
    0.3152   -0.5705   -1.9293 H   0  0  0  0  0  0  0  0  0  0  0  0 
    1.1564    0.6336   -2.9364 H   0  0  0  0  0  0  0  0  0  0  0  0 
   12.7892   -1.7806    2.2933 H   0  0  0  0  0  0  0  0  0  0  0  0 
   11.6775   -0.7038    1.4224 H   0  0  0  0  0  0  0  0  0  0  0  0 
   13.1110   -1.3657    0.6143 H   0  0  0  0  0  0  0  0  0  0  0  0 
    0.4811    0.9960    0.0457 H   0  0  0  0  0  0  0  0  0  0  0  0 
    1.3560    2.1675   -0.9764 H   0  0  0  0  0  0  0  0  0  0  0  0 
    3.6509   -1.2232    0.7718 H   0  0  0  0  0  0  0  0  0  0  0  0 
    5.9600    1.1558   -1.9423 H   0  0  0  0  0  0  0  0  0  0  0  0 
    5.6840   -2.4554    1.4343 H   0  0  0  0  0  0  0  0  0  0  0  0 
    8.0101   -0.0429   -1.2845 H   0  0  0  0  0  0  0  0  0  0  0  0 
    9.5639   -1.3458   -0.7797 H   0  0  0  0  0  0  0  0  0  0  0  0 
    9.7546   -0.8014    0.8891 H   0  0  0  0  0  0  0  0  0  0  0  0 
    7.9982   -2.5169    1.4284 H   0  0  0  0  0  0  0  0  0  0  0  0 
    8.9996   -3.8575   -0.1647 H   0  0  0  0  0  0  0  0  0  0  0  0 
  1 19  1  0  0  0  0 
  1  3  1  0  0  0  0 
  2 22  1  0  0  0  0 
  2 21  1  0  0  0  0 
  3 17  1  0  0  0  0 
  3 24  1  0  0  0  0 
  4  6  1  0  0  0  0 
  4 26  1  0  0  0  0 
  5  7  2  0  0  0  0 
  5  9  1  0  0  0  0 
  6 28  1  0  0  0  0 
  7 10  1  0  0  0  0 
  8 11  1  0  0  0  0 
  8 14  1  0  0  0  0 
  8 31  1  0  0  0  0 
  9  4  2  0  0  0  0 
 10 14  1  0  0  0  0 
 10  6  2  0  0  0  0 
 11 13  2  0  0  0  0 
 12  9  1  0  0  0  0 
 12 17  1  0  0  0  0 
 13  2  1  0  0  0  0 
 14 32  1  0  0  0  0 
 15 11  1  0  0  0  0 
 16 12  2  0  0  0  0 
 18  1  1  0  0  0  0 
 20  1  1  0  0  0  0 
 23  2  1  0  0  0  0 
 25  3  1  0  0  0  0 
 27  5  1  0  0  0  0 
 29  7  1  0  0  0  0 
 30  8  1  0  0  0  0 
 33 15  1  0  0  0  0 
M  END 
>  <HBA> 
5 
 
>  <HBD> 
2 
 
>  <TPSA> 
67.43 
 
>  <cid> 
56966 
 
>  <dipole> 
2.74 
 
>  <excitation_energy_1> 
4.631 
 
>  <excitation_energy_2> 
4.738 
 
>  <excitation_energy_3> 
4.944 
 
>  <excitation_energy_4> 
5.15 
 
>  <homo_energy> 
-6.153 
 
>  <homo_lumo_gap> 
5.056 
 
>  <logP> 
1.485 
 
>  <lumo_energy> 
-1.097 
 
>  <melting_point> 
111.4 
 
>  <molecular_refractivity> 
64.45 
 
>  <oscillator_strength_1> 
0.5113 
 
>  <oscillator_strength_2> 
0.0525 
 
>  <oscillator_strength_3> 
0.0001 
 
>  <oscillator_strength_4> 
0.0212 
 
>  <open_babel_can_smiles> 
CCOC(=O)c1ccc(cc1)NC/C(=N\C)/O 
 
>  <mulliken_charges> 
33 
1   -0.46182 
2   -0.32799 
3   -0.040666 
4   -0.165714 
5   -0.168473 
6   -0.193811 
7   -0.185308 
8   -0.206489 
9   0.050995 
10   0.367935 
11   0.481857 
12   0.592956 
13   -0.412827 
14   -0.717177 
15   -0.588784 
16   -0.500172 
17   -0.482108 
18   0.149354 
19   0.155754 
20   0.178106 
21   0.163573 
22   0.121187 
23   0.162675 
24   0.150125 
25   0.170868 
26   0.158392 
27   0.165665 
28   0.129115 
29   0.135326 
30   0.191477 
31   0.173062 
32   0.334215 
33   0.418704 
 
>  <lowdin_charges> 
33 
1   -0.453879 
2   -0.357033 
3   -0.125481 
4   -0.127232 
5   -0.116016 
6   -0.194423 
7   -0.20375 
8   -0.231662 
9   -0.065993 
10   0.06732 
11   0.105019 
12   0.195285 
13   -0.198505 
14   -0.303502 
15   -0.36869 
16   -0.28092 
17   -0.198179 
18   0.158251 
19   0.153787 
20   0.166729 
21   0.155832 
22   0.124675 
23   0.156976 
24   0.151614 
25   0.157441 
26   0.174127 
27   0.178772 
28   0.157692 
29   0.161724 
30   0.171351 
31   0.157657 
32   0.280023 
33   0.35099 
 
$$$$ 
 
