PCCDB-ID:  27670 
public computational chemistry database (PCCDB) project, http://pccdb.org 
 
 27 26  0  0  0  0  0  0  0  0999 V2000 
    1.9101    0.0820   -2.1283 C   0  0  0  0  0  0  0  0  0  0  0  0 
    3.2558   -0.3103   -1.5097 C   0  0  0  0  0  0  0  0  0  0  0  0 
    3.8639    0.7950   -0.6370 C   0  0  0  0  0  0  0  0  0  0  0  0 
    5.2168    0.4134   -0.0225 C   0  0  0  0  0  0  0  0  0  0  0  0 
    5.8126    1.5205    0.8558 C   0  0  0  0  0  0  0  0  0  0  0  0 
    7.1645    1.1318    1.4601 C   0  0  0  0  0  0  0  0  0  0  0  0 
    9.2027    1.9236    2.8182 C   0  0  0  0  0  0  0  0  0  0  0  0 
    7.7484    2.1891    2.3812 C   0  0  0  0  0  0  0  0  0  0  0  0 
    9.6255    2.9169    3.8542 N   0  0  0  0  0  0  0  0  0  0  0  0 
    7.1469    3.1684    2.7567 O   0  0  0  0  0  0  0  0  0  0  0  0 
    9.3552    2.6444    5.0188 O   0  0  0  0  0  0  0  0  0  0  0  0 
   10.1801    3.9345    3.4555 O   0  0  0  0  0  0  0  0  0  0  0  0 
    1.5068   -0.7237   -2.7520 H   0  0  0  0  0  0  0  0  0  0  0  0 
    2.0091    0.9741   -2.7588 H   0  0  0  0  0  0  0  0  0  0  0  0 
    1.1677    0.3067   -1.3528 H   0  0  0  0  0  0  0  0  0  0  0  0 
    3.9642   -0.5719   -2.3086 H   0  0  0  0  0  0  0  0  0  0  0  0 
    3.1296   -1.2200   -0.9054 H   0  0  0  0  0  0  0  0  0  0  0  0 
    3.1590    1.0517    0.1675 H   0  0  0  0  0  0  0  0  0  0  0  0 
    3.9834    1.7082   -1.2385 H   0  0  0  0  0  0  0  0  0  0  0  0 
    5.9228    0.1623   -0.8283 H   0  0  0  0  0  0  0  0  0  0  0  0 
    5.0989   -0.5034    0.5745 H   0  0  0  0  0  0  0  0  0  0  0  0 
    5.1192    1.7716    1.6669 H   0  0  0  0  0  0  0  0  0  0  0  0 
    5.9337    2.4396    0.2685 H   0  0  0  0  0  0  0  0  0  0  0  0 
    7.9004    0.9027    0.6747 H   0  0  0  0  0  0  0  0  0  0  0  0 
    7.0740    0.2040    2.0476 H   0  0  0  0  0  0  0  0  0  0  0  0 
    9.8781    2.0320    1.9664 H   0  0  0  0  0  0  0  0  0  0  0  0 
    9.3041    0.9289    3.2574 H   0  0  0  0  0  0  0  0  0  0  0  0 
  1  2  1  0  0  0  0 
  1 15  1  0  0  0  0 
  2 17  1  0  0  0  0 
  2  3  1  0  0  0  0 
  3  4  1  0  0  0  0 
  3 18  1  0  0  0  0 
  4 21  1  0  0  0  0 
  4  5  1  0  0  0  0 
  5  6  1  0  0  0  0 
  5 22  1  0  0  0  0 
  6 25  1  0  0  0  0 
  6  8  1  0  0  0  0 
  7 27  1  0  0  0  0 
  7  9  1  0  0  0  0 
  8 10  2  0  0  0  0 
  8  7  1  0  0  0  0 
  9 11  2  0  0  0  0 
 12  9  2  0  0  0  0 
 13  1  1  0  0  0  0 
 14  1  1  0  0  0  0 
 16  2  1  0  0  0  0 
 19  3  1  0  0  0  0 
 20  4  1  0  0  0  0 
 23  5  1  0  0  0  0 
 24  6  1  0  0  0  0 
 26  7  1  0  0  0  0 
M  END 
>  <HBA> 
1 
 
>  <HBD> 
0 
 
>  <TPSA> 
62.89 
 
>  <cid> 
27670 
 
>  <dipole> 
5.7 
 
>  <excitation_energy_1> 
4.1 
 
>  <excitation_energy_2> 
4.369 
 
>  <excitation_energy_3> 
4.542 
 
>  <excitation_energy_4> 
4.672 
 
>  <homo_energy> 
-7.532 
 
>  <homo_lumo_gap> 
5.655 
 
>  <logP> 
2.326 
 
>  <lumo_energy> 
-1.878 
 
>  <melting_point> 
24.26 
 
>  <molecular_refractivity> 
48.88 
 
>  <oscillator_strength_1> 
0.0002 
 
>  <oscillator_strength_2> 
0.0144 
 
>  <oscillator_strength_3> 
0.0001 
 
>  <oscillator_strength_4> 
0.0226 
 
>  <open_babel_can_smiles> 
CCCCCCC(=O)CN(=O)=O 
 
>  <mulliken_charges> 
27 
1   -0.442145 
2   -0.248261 
3   -0.247887 
4   -0.259027 
5   -0.251452 
6   -0.367965 
7   -0.248715 
8   0.460687 
9   0.471727 
10   -0.406959 
11   -0.372672 
12   -0.368944 
13   0.143797 
14   0.143218 
15   0.143766 
16   0.130522 
17   0.131124 
18   0.132925 
19   0.131603 
20   0.128149 
21   0.129345 
22   0.160637 
23   0.150897 
24   0.161984 
25   0.173565 
26   0.212441 
27   0.207641 
 
>  <lowdin_charges> 
27 
1   -0.446285 
2   -0.27314 
3   -0.275109 
4   -0.275921 
5   -0.270269 
6   -0.309251 
7   -0.260413 
8   0.166531 
9   0.303838 
10   -0.198283 
11   -0.235113 
12   -0.232444 
13   0.151524 
14   0.147546 
15   0.148359 
16   0.139704 
17   0.139339 
18   0.141563 
19   0.14016 
20   0.138528 
21   0.138526 
22   0.157334 
23   0.15177 
24   0.162428 
25   0.169037 
26   0.19174 
27   0.188303 
 
$$$$ 
 
