PCCDB-ID:  30939 
public computational chemistry database (PCCDB) project, http://pccdb.org 
 
 27 30  0  0  0  0  0  0  0  0999 V2000 
    4.5896    0.7456   -0.0009 C   0  0  0  0  0  0  0  0  0  0  0  0 
    4.6098   -0.6823   -0.0004 C   0  0  0  0  0  0  0  0  0  0  0  0 
    3.3999    1.4224   -0.0008 C   0  0  0  0  0  0  0  0  0  0  0  0 
    3.4399   -1.3932    0.0000 C   0  0  0  0  0  0  0  0  0  0  0  0 
   -4.0937    1.1447   -0.0000 C   0  0  0  0  0  0  0  0  0  0  0  0 
   -5.0172    0.1558    0.0011 C   0  0  0  0  0  0  0  0  0  0  0  0 
    0.9225    1.3823   -0.0000 C   0  0  0  0  0  0  0  0  0  0  0  0 
    0.9623   -1.4250    0.0002 C   0  0  0  0  0  0  0  0  0  0  0  0 
   -1.5486    1.3626    0.0001 C   0  0  0  0  0  0  0  0  0  0  0  0 
   -1.5082   -1.4805    0.0009 C   0  0  0  0  0  0  0  0  0  0  0  0 
    2.1524    0.7200   -0.0003 C   0  0  0  0  0  0  0  0  0  0  0  0 
    2.1731   -0.7271   -0.0001 C   0  0  0  0  0  0  0  0  0  0  0  0 
   -2.7336    0.6544    0.0000 C   0  0  0  0  0  0  0  0  0  0  0  0 
   -0.2985    0.6863    0.0004 C   0  0  0  0  0  0  0  0  0  0  0  0 
   -0.2764   -0.7642    0.0006 C   0  0  0  0  0  0  0  0  0  0  0  0 
   -2.6921   -0.7879    0.0007 C   0  0  0  0  0  0  0  0  0  0  0  0 
   -4.3265   -1.4637    0.0014 S   0  0  0  0  0  0  0  0  0  0  0  0 
    5.5287    1.2921   -0.0016 H   0  0  0  0  0  0  0  0  0  0  0  0 
    5.5642   -1.2020   -0.0001 H   0  0  0  0  0  0  0  0  0  0  0  0 
    3.3817    2.5098   -0.0013 H   0  0  0  0  0  0  0  0  0  0  0  0 
    3.4532   -2.4806    0.0008 H   0  0  0  0  0  0  0  0  0  0  0  0 
   -4.3456    2.1999    0.0009 H   0  0  0  0  0  0  0  0  0  0  0  0 
   -6.0944    0.2637    0.0012 H   0  0  0  0  0  0  0  0  0  0  0  0 
    0.9067    2.4704   -0.0009 H   0  0  0  0  0  0  0  0  0  0  0  0 
    0.9785   -2.5131    0.0007 H   0  0  0  0  0  0  0  0  0  0  0  0 
   -1.5598    2.4501   -0.0002 H   0  0  0  0  0  0  0  0  0  0  0  0 
   -1.4878   -2.5670    0.0012 H   0  0  0  0  0  0  0  0  0  0  0  0 
  1  3  2  0  0  0  0 
  1  2  1  0  0  0  0 
  2 19  1  0  0  0  0 
  2  4  2  0  0  0  0 
  3 11  1  0  0  0  0 
  4 21  1  0  0  0  0 
  5 13  1  0  0  0  0 
  5 22  1  0  0  0  0 
  5  6  2  0  0  0  0 
  6 23  1  0  0  0  0 
  6 17  1  0  0  0  0 
  7 14  2  0  0  0  0 
  8 15  2  0  0  0  0 
  8 25  1  0  0  0  0 
  9 14  1  0  0  0  0 
 10 27  1  0  0  0  0 
 11 12  2  0  0  0  0 
 11  7  1  0  0  0  0 
 12  4  1  0  0  0  0 
 12  8  1  0  0  0  0 
 13  9  2  0  0  0  0 
 13 16  1  0  0  0  0 
 14 15  1  0  0  0  0 
 15 10  1  0  0  0  0 
 16 10  2  0  0  0  0 
 16 17  1  0  0  0  0 
 18  1  1  0  0  0  0 
 20  3  1  0  0  0  0 
 24  7  1  0  0  0  0 
 26  9  1  0  0  0  0 
M  END 
>  <HBA> 
1 
 
>  <HBD> 
0 
 
>  <TPSA> 
28.24 
 
>  <cid> 
30939 
 
>  <dipole> 
0.84 
 
>  <excitation_energy_1> 
2.77 
 
>  <excitation_energy_2> 
3.576 
 
>  <excitation_energy_3> 
3.885 
 
>  <excitation_energy_4> 
4.215 
 
>  <homo_energy> 
-4.974 
 
>  <homo_lumo_gap> 
3.135 
 
>  <logP> 
5.208 
 
>  <lumo_energy> 
-1.84 
 
>  <melting_point> 
137.56 
 
>  <molecular_refractivity> 
76.84 
 
>  <oscillator_strength_1> 
0.0549 
 
>  <oscillator_strength_2> 
0.0013 
 
>  <oscillator_strength_3> 
0.0025 
 
>  <oscillator_strength_4> 
0.1126 
 
>  <open_babel_can_smiles> 
c1ccc2c(c1)cc1c(c2)cc2c(c1)scc2 
 
>  <mulliken_charges> 
27 
1   -0.140594 
2   -0.140251 
3   -0.182823 
4   -0.183577 
5   -0.117763 
6   -0.347726 
7   -0.29635 
8   -0.301963 
9   -0.26473 
10   -0.240203 
11   0.146642 
12   0.148958 
13   0.153986 
14   0.148038 
15   0.16594 
16   -0.143168 
17   0.220285 
18   0.130367 
19   0.130501 
20   0.129798 
21   0.130108 
22   0.146756 
23   0.176292 
24   0.12884 
25   0.129418 
26   0.131728 
27   0.141493 
 
>  <lowdin_charges> 
27 
1   -0.160307 
2   -0.159462 
3   -0.151851 
4   -0.152219 
5   -0.181275 
6   -0.284357 
7   -0.157051 
8   -0.159206 
9   -0.158364 
10   -0.162579 
11   -0.002574 
12   -0.001477 
13   -0.01321 
14   -0.002228 
15   0.000695 
16   -0.129242 
17   0.263733 
18   0.159155 
19   0.15906 
20   0.155833 
21   0.155988 
22   0.167755 
23   0.18149 
24   0.155018 
25   0.15522 
26   0.158455 
27   0.163003 
 
$$$$ 
 
