PCCDB-ID:  20986 
public computational chemistry database (PCCDB) project, http://pccdb.org 
 
 22 23  0  0  1  0  0  0  0  0999 V2000 
    0.7643   -1.5784    0.4345 C   0  0  0  0  0  0  0  0  0  0  0  0 
   -0.6332    1.3462    0.9461 C   0  0  0  0  0  0  0  0  0  0  0  0 
   -0.4444   -1.4994   -0.1320 C   0  0  0  0  0  0  0  0  0  0  0  0 
    1.8444   -0.5399    0.2565 C   0  0  0  0  0  0  0  0  0  0  0  0 
   -1.5766    0.7798   -0.1256 C   0  0  0  0  0  0  0  0  0  0  0  0 
    0.7112    1.7978    0.3490 C   0  0  0  0  0  0  0  0  0  0  0  0 
   -0.8709   -0.3178   -0.9815 C   0  0  1  0  0  0  0  0  0  0  0  0 
    1.3883    0.7149   -0.5378 C   0  0  2  0  0  0  0  0  0  0  0  0 
    0.3770    0.3023   -1.5986 C   0  0  0  0  0  0  0  0  0  0  0  0 
    0.5257    0.4815   -2.7916 O   0  0  0  0  0  0  0  0  0  0  0  0 
    1.0182   -2.4436    1.0457 H   0  0  0  0  0  0  0  0  0  0  0  0 
   -0.4576    0.5826    1.7124 H   0  0  0  0  0  0  0  0  0  0  0  0 
   -1.1129    2.1928    1.4527 H   0  0  0  0  0  0  0  0  0  0  0  0 
   -1.1774   -2.2892    0.0253 H   0  0  0  0  0  0  0  0  0  0  0  0 
    2.6925   -1.0040   -0.2688 H   0  0  0  0  0  0  0  0  0  0  0  0 
    2.2417   -0.2355    1.2365 H   0  0  0  0  0  0  0  0  0  0  0  0 
   -1.9075    1.5821   -0.7994 H   0  0  0  0  0  0  0  0  0  0  0  0 
   -2.4786    0.3611    0.3381 H   0  0  0  0  0  0  0  0  0  0  0  0 
    1.4030    2.0928    1.1488 H   0  0  0  0  0  0  0  0  0  0  0  0 
    0.5514    2.6900   -0.2722 H   0  0  0  0  0  0  0  0  0  0  0  0 
   -1.5351   -0.6392   -1.7907 H   0  0  0  0  0  0  0  0  0  0  0  0 
    2.2510    1.1601   -1.0436 H   0  0  0  0  0  0  0  0  0  0  0  0 
  1 11  1  0  0  0  0 
  2 13  1  0  0  0  0 
  2 12  1  0  0  0  0 
  3 14  1  0  0  0  0 
  3  1  2  0  0  0  0 
  4  1  1  0  0  0  0 
  4 16  1  0  0  0  0 
  5 18  1  0  0  0  0 
  5  2  1  0  0  0  0 
  6  2  1  0  0  0  0 
  6 19  1  0  0  0  0 
  7 21  1  6  0  0  0 
  7  3  1  0  0  0  0 
  7  5  1  0  0  0  0 
  8 22  1  6  0  0  0 
  8  4  1  0  0  0  0 
  8  6  1  0  0  0  0 
  9  7  1  0  0  0  0 
  9  8  1  0  0  0  0 
 10  9  2  0  0  0  0 
 15  4  1  0  0  0  0 
 17  5  1  0  0  0  0 
 20  6  1  0  0  0  0 
M  END 
>  <HBA> 
1 
 
>  <HBD> 
0 
 
>  <TPSA> 
17.07 
 
>  <cid> 
20986 
 
>  <dipole> 
3.09 
 
>  <excitation_energy_1> 
4.214 
 
>  <excitation_energy_2> 
5.567 
 
>  <excitation_energy_3> 
5.6 
 
>  <excitation_energy_4> 
5.736 
 
>  <homo_energy> 
-6.144 
 
>  <homo_lumo_gap> 
5.962 
 
>  <logP> 
1.932 
 
>  <lumo_energy> 
-0.182 
 
>  <melting_point> 
47.78 
 
>  <molecular_refractivity> 
40.88 
 
>  <oscillator_strength_1> 
0.0005 
 
>  <oscillator_strength_2> 
0.0014 
 
>  <oscillator_strength_3> 
0.0184 
 
>  <oscillator_strength_4> 
0.0002 
 
>  <open_babel_can_smiles> 
O=C1[C@H]2CCC[C@@H]1C=CC2 
 
>  <mulliken_charges> 
22 
1   -0.100234 
2   -0.26856 
3   -0.121086 
4   -0.31672 
5   -0.26985 
6   -0.280082 
7   -0.199657 
8   -0.165011 
9   0.445883 
10   -0.456584 
11   0.129461 
12   0.148282 
13   0.14016 
14   0.133362 
15   0.162561 
16   0.14723 
17   0.146837 
18   0.14191 
19   0.139739 
20   0.146185 
21   0.149492 
22   0.146683 
 
>  <lowdin_charges> 
22 
1   -0.171612 
2   -0.28594 
3   -0.172729 
4   -0.274981 
5   -0.272884 
6   -0.275297 
7   -0.15773 
8   -0.156219 
9   0.157771 
10   -0.233794 
11   0.15678 
12   0.149946 
13   0.151206 
14   0.158084 
15   0.161093 
16   0.15146 
17   0.148931 
18   0.14984 
19   0.148279 
20   0.148126 
21   0.161341 
22   0.158329 
 
$$$$ 
 
