PCCDB-ID:  12031 
public computational chemistry database (PCCDB) project, http://pccdb.org 
 
 24 24  0  0  0  0  0  0  0  0999 V2000 
   -2.2950    0.0003    0.1408 C   0  0  0  0  0  0  0  0  0  0  0  0 
   -1.7942   -1.1763    0.7047 C   0  0  0  0  0  0  0  0  0  0  0  0 
   -1.4215    0.8980   -0.4718 C   0  0  0  0  0  0  0  0  0  0  0  0 
   -0.4287   -1.4512    0.6540 C   0  0  0  0  0  0  0  0  0  0  0  0 
   -0.0525    0.6206   -0.5222 C   0  0  0  0  0  0  0  0  0  0  0  0 
    1.9516   -0.8590   -0.0011 C   0  0  0  0  0  0  0  0  0  0  0  0 
    0.4645   -0.5573    0.0393 C   0  0  0  0  0  0  0  0  0  0  0  0 
    2.3445   -2.0651   -0.9073 C   0  0  0  0  0  0  0  0  0  0  0  0 
    2.2496   -1.7846   -2.4196 C   0  0  0  0  0  0  0  0  0  0  0  0 
    3.7503   -2.5662   -0.6023 C   0  0  0  0  0  0  0  0  0  0  0  0 
    3.1485   -2.0131   -3.1893 O   0  0  0  0  0  0  0  0  0  0  0  0 
    1.0715   -1.2920   -2.8619 O   0  0  0  0  0  0  0  0  0  0  0  0 
    4.0395   -3.7194   -0.3874 O   0  0  0  0  0  0  0  0  0  0  0  0 
    4.6464   -1.5548   -0.5639 O   0  0  0  0  0  0  0  0  0  0  0  0 
   -3.3593    0.2141    0.1805 H   0  0  0  0  0  0  0  0  0  0  0  0 
   -2.4679   -1.8787    1.1877 H   0  0  0  0  0  0  0  0  0  0  0  0 
   -1.8005    1.8168   -0.9106 H   0  0  0  0  0  0  0  0  0  0  0  0 
   -0.0472   -2.3643    1.1062 H   0  0  0  0  0  0  0  0  0  0  0  0 
    0.6241    1.3270   -0.9974 H   0  0  0  0  0  0  0  0  0  0  0  0 
    2.2917   -1.0921    1.0150 H   0  0  0  0  0  0  0  0  0  0  0  0 
    2.5133    0.0248   -0.3179 H   0  0  0  0  0  0  0  0  0  0  0  0 
    1.6781   -2.9085   -0.6910 H   0  0  0  0  0  0  0  0  0  0  0  0 
    0.4602   -1.1192   -2.1215 H   0  0  0  0  0  0  0  0  0  0  0  0 
    5.5165   -1.9660   -0.4026 H   0  0  0  0  0  0  0  0  0  0  0  0 
  1 15  1  0  0  0  0 
  1  2  2  0  0  0  0 
  2 16  1  0  0  0  0 
  3  1  1  0  0  0  0 
  4  2  1  0  0  0  0 
  4 18  1  0  0  0  0 
  5  3  2  0  0  0  0 
  5  7  1  0  0  0  0 
  6  7  1  0  0  0  0 
  6 20  1  0  0  0  0 
  7  4  2  0  0  0  0 
  8 22  1  0  0  0  0 
  8 10  1  0  0  0  0 
  8  6  1  0  0  0  0 
  9  8  1  0  0  0  0 
 10 14  1  0  0  0  0 
 10 13  2  0  0  0  0 
 11  9  2  0  0  0  0 
 12  9  1  0  0  0  0 
 12 23  1  0  0  0  0 
 14 24  1  0  0  0  0 
 17  3  1  0  0  0  0 
 19  5  1  0  0  0  0 
 21  6  1  0  0  0  0 
M  END 
>  <HBA> 
4 
 
>  <HBD> 
2 
 
>  <TPSA> 
74.6 
 
>  <cid> 
12031 
 
>  <dipole> 
5.36 
 
>  <excitation_energy_1> 
5.288 
 
>  <excitation_energy_2> 
5.584 
 
>  <excitation_energy_3> 
5.686 
 
>  <excitation_energy_4> 
5.858 
 
>  <homo_energy> 
-7.225 
 
>  <homo_lumo_gap> 
6.392 
 
>  <logP> 
1.014 
 
>  <lumo_energy> 
-0.833 
 
>  <melting_point> 
159.48 
 
>  <molecular_refractivity> 
49.37 
 
>  <oscillator_strength_1> 
0.001 
 
>  <oscillator_strength_2> 
0.0064 
 
>  <oscillator_strength_3> 
0.016 
 
>  <oscillator_strength_4> 
0.0486 
 
>  <open_babel_can_smiles> 
OC(=O)C(C(=O)O)Cc1ccccc1 
 
>  <mulliken_charges> 
24 
1   -0.127635 
2   -0.125856 
3   -0.119766 
4   -0.17107 
5   -0.194899 
6   -0.352907 
7   0.087873 
8   -0.304825 
9   0.61643 
10   0.594322 
11   -0.432396 
12   -0.576263 
13   -0.452788 
14   -0.55764 
15   0.14266 
16   0.143524 
17   0.145092 
18   0.14065 
19   0.147917 
20   0.177078 
21   0.182632 
22   0.197008 
23   0.425117 
24   0.415742 
 
>  <lowdin_charges> 
24 
1   -0.14881 
2   -0.149087 
3   -0.149298 
4   -0.165907 
5   -0.174269 
6   -0.271429 
7   -0.032864 
8   -0.192071 
9   0.199894 
10   0.197722 
11   -0.23296 
12   -0.352149 
13   -0.25 
14   -0.347093 
15   0.162579 
16   0.165808 
17   0.165536 
18   0.161701 
19   0.166551 
20   0.16858 
21   0.168917 
22   0.182117 
23   0.360405 
24   0.366127 
 
$$$$ 
 
