PCCDB-ID:  6853 
public computational chemistry database (PCCDB) project, http://pccdb.org 
 
 23 25  0  0  0  0  0  0  0  0999 V2000 
   -3.4618    0.1216    0.0029 C   0  0  0  0  0  0  0  0  0  0  0  0 
    3.4619    0.1218    0.0022 C   0  0  0  0  0  0  0  0  0  0  0  0 
   -3.0165   -1.2049   -0.0001 C   0  0  0  0  0  0  0  0  0  0  0  0 
    3.0167   -1.2047   -0.0010 C   0  0  0  0  0  0  0  0  0  0  0  0 
   -2.5452    1.1792    0.0051 C   0  0  0  0  0  0  0  0  0  0  0  0 
    2.5452    1.1794    0.0035 C   0  0  0  0  0  0  0  0  0  0  0  0 
   -1.6511   -1.4975   -0.0008 C   0  0  0  0  0  0  0  0  0  0  0  0 
    1.6513   -1.4974   -0.0024 C   0  0  0  0  0  0  0  0  0  0  0  0 
   -0.0000    1.8396    0.0030 C   0  0  0  0  0  0  0  0  0  0  0  0 
   -1.1846    0.8936    0.0037 C   0  0  0  0  0  0  0  0  0  0  0  0 
    1.1847    0.8937    0.0022 C   0  0  0  0  0  0  0  0  0  0  0  0 
   -0.7347   -0.4434    0.0008 C   0  0  0  0  0  0  0  0  0  0  0  0 
    0.7349   -0.4434   -0.0001 C   0  0  0  0  0  0  0  0  0  0  0  0 
   -4.5279    0.3322    0.0033 H   0  0  0  0  0  0  0  0  0  0  0  0 
    4.5280    0.3325    0.0044 H   0  0  0  0  0  0  0  0  0  0  0  0 
   -3.7405   -2.0155   -0.0021 H   0  0  0  0  0  0  0  0  0  0  0  0 
    3.7408   -2.0152   -0.0025 H   0  0  0  0  0  0  0  0  0  0  0  0 
   -2.8974    2.2082    0.0086 H   0  0  0  0  0  0  0  0  0  0  0  0 
    2.8974    2.2084    0.0049 H   0  0  0  0  0  0  0  0  0  0  0  0 
   -1.3118   -2.5304   -0.0018 H   0  0  0  0  0  0  0  0  0  0  0  0 
    1.3121   -2.5303   -0.0054 H   0  0  0  0  0  0  0  0  0  0  0  0 
    0.0006    2.5003    0.8814 H   0  0  0  0  0  0  0  0  0  0  0  0 
   -0.0007    2.4979   -0.8772 H   0  0  0  0  0  0  0  0  0  0  0  0 
  1 14  1  0  0  0  0 
  1  5  2  0  0  0  0 
  2  6  2  0  0  0  0 
  2 15  1  0  0  0  0 
  3  1  1  0  0  0  0 
  4  2  1  0  0  0  0 
  5 18  1  0  0  0  0 
  6 19  1  0  0  0  0 
  7  3  2  0  0  0  0 
  7 12  1  0  0  0  0 
  8  4  2  0  0  0  0 
  8 13  1  0  0  0  0 
  9 10  1  0  0  0  0 
  9 22  1  0  0  0  0 
 10  5  1  0  0  0  0 
 11  9  1  0  0  0  0 
 11  6  1  0  0  0  0 
 12 10  2  0  0  0  0 
 13 12  1  0  0  0  0 
 13 11  2  0  0  0  0 
 16  3  1  0  0  0  0 
 17  4  1  0  0  0  0 
 20  7  1  0  0  0  0 
 21  8  1  0  0  0  0 
 23  9  1  0  0  0  0 
M  END 
>  <HBA> 
0 
 
>  <HBD> 
0 
 
>  <TPSA> 
0.0 
 
>  <cid> 
6853 
 
>  <dipole> 
0.48 
 
>  <excitation_energy_1> 
4.505 
 
>  <excitation_energy_2> 
4.674 
 
>  <excitation_energy_3> 
4.849 
 
>  <excitation_energy_4> 
5.47 
 
>  <homo_energy> 
-5.755 
 
>  <homo_lumo_gap> 
5.042 
 
>  <logP> 
3.258 
 
>  <lumo_energy> 
-0.713 
 
>  <melting_point> 
73.51 
 
>  <molecular_refractivity> 
54.89 
 
>  <oscillator_strength_1> 
0.1585 
 
>  <oscillator_strength_2> 
0.2915 
 
>  <oscillator_strength_3> 
0.0073 
 
>  <oscillator_strength_4> 
0.0064 
 
>  <open_babel_can_smiles> 
c1ccc2c(c1)Cc1c2cccc1 
 
>  <mulliken_charges> 
23 
1   -0.129933 
2   -0.129919 
3   -0.137528 
4   -0.137526 
5   -0.201695 
6   -0.201739 
7   -0.190899 
8   -0.190918 
9   -0.420145 
10   0.106127 
11   0.106164 
12   0.085208 
13   0.085258 
14   0.126601 
15   0.126601 
16   0.127323 
17   0.127323 
18   0.12428 
19   0.124277 
20   0.128446 
21   0.128442 
22   0.172028 
23   0.172224 
 
>  <lowdin_charges> 
23 
1   -0.156924 
2   -0.156924 
3   -0.158175 
4   -0.158175 
5   -0.162899 
6   -0.1629 
7   -0.161295 
8   -0.161295 
9   -0.275318 
10   -0.005036 
11   -0.005035 
12   -0.01139 
13   -0.011389 
14   0.155347 
15   0.155348 
16   0.157938 
17   0.157938 
18   0.155058 
19   0.155057 
20   0.155963 
21   0.155963 
22   0.169008 
23   0.169134 
 
$$$$ 
 
