PCCDB-ID:  70494 
public computational chemistry database (PCCDB) project, http://pccdb.org 
 
 23 23  0  0  0  0  0  0  0  0999 V2000 
    0.6993    1.0853   -1.0688 C   0  0  0  0  0  0  0  0  0  0  0  0 
    1.4394   -0.0013   -0.2742 C   0  0  0  0  0  0  0  0  0  0  0  0 
   -0.7252    1.2993   -0.5346 C   0  0  0  0  0  0  0  0  0  0  0  0 
    0.6604   -1.3250   -0.2710 C   0  0  0  0  0  0  0  0  0  0  0  0 
   -1.5265   -0.0124   -0.5162 C   0  0  0  0  0  0  0  0  0  0  0  0 
   -0.8017   -1.1726    0.2118 C   0  0  0  0  0  0  0  0  0  0  0  0 
   -0.4400    0.3175    2.5381 O   0  0  0  0  0  0  0  0  0  0  0  0 
   -2.5511   -1.1357    2.2194 O   0  0  0  0  0  0  0  0  0  0  0  0 
   -0.2523   -2.2581    2.7757 O   0  0  0  0  0  0  0  0  0  0  0  0 
   -0.9302   -1.1611    2.0315 P   0  0  0  0  0  0  0  0  0  0  0  0 
    0.6523    0.7891   -2.1279 H   0  0  0  0  0  0  0  0  0  0  0  0 
    1.2609    2.0276   -1.0340 H   0  0  0  0  0  0  0  0  0  0  0  0 
    1.5904    0.3429    0.7571 H   0  0  0  0  0  0  0  0  0  0  0  0 
    2.4369   -0.1710   -0.6989 H   0  0  0  0  0  0  0  0  0  0  0  0 
   -1.2561    2.0331   -1.1544 H   0  0  0  0  0  0  0  0  0  0  0  0 
   -0.6747    1.7169    0.4776 H   0  0  0  0  0  0  0  0  0  0  0  0 
    1.1755   -2.0816    0.3314 H   0  0  0  0  0  0  0  0  0  0  0  0 
    0.6218   -1.7143   -1.2986 H   0  0  0  0  0  0  0  0  0  0  0  0 
   -1.6844   -0.3425   -1.5531 H   0  0  0  0  0  0  0  0  0  0  0  0 
   -2.5214    0.1442   -0.0859 H   0  0  0  0  0  0  0  0  0  0  0  0 
   -1.3331   -2.1049   -0.0248 H   0  0  0  0  0  0  0  0  0  0  0  0 
    0.0904    0.2055    3.3456 H   0  0  0  0  0  0  0  0  0  0  0  0 
   -2.7914   -1.5729    3.0538 H   0  0  0  0  0  0  0  0  0  0  0  0 
  1 12  1  0  0  0  0 
  1  3  1  0  0  0  0 
  1  2  1  0  0  0  0 
  2  4  1  0  0  0  0 
  2 13  1  0  0  0  0 
  3  5  1  0  0  0  0 
  3 16  1  0  0  0  0 
  4  6  1  0  0  0  0 
  4 17  1  0  0  0  0 
  5 20  1  0  0  0  0 
  5  6  1  0  0  0  0 
  6 10  1  0  0  0  0 
  7 22  1  0  0  0  0 
  8 23  1  0  0  0  0 
 10  8  1  0  0  0  0 
 10  7  1  0  0  0  0 
 10  9  2  0  0  0  0 
 11  1  1  0  0  0  0 
 14  2  1  0  0  0  0 
 15  3  1  0  0  0  0 
 18  4  1  0  0  0  0 
 19  5  1  0  0  0  0 
 21  6  1  0  0  0  0 
M  END 
>  <HBA> 
3 
 
>  <HBD> 
2 
 
>  <TPSA> 
67.34 
 
>  <cid> 
70494 
 
>  <dipole> 
1.32 
 
>  <excitation_energy_1> 
6.74 
 
>  <excitation_energy_2> 
6.773 
 
>  <excitation_energy_3> 
7.346 
 
>  <excitation_energy_4> 
7.364 
 
>  <homo_energy> 
-7.668 
 
>  <homo_lumo_gap> 
8.784 
 
>  <logP> 
1.497 
 
>  <lumo_energy> 
1.116 
 
>  <melting_point> 
82.35 
 
>  <molecular_refractivity> 
39.83 
 
>  <oscillator_strength_1> 
0.0145 
 
>  <oscillator_strength_2> 
0.0607 
 
>  <oscillator_strength_3> 
0.0009 
 
>  <oscillator_strength_4> 
0.0036 
 
>  <open_babel_can_smiles> 
OP(=O)(C1CCCCC1)O 
 
>  <mulliken_charges> 
23 
1   -0.255831 
2   -0.261507 
3   -0.266913 
4   -0.288221 
5   -0.283359 
6   -0.306182 
7   -0.663267 
8   -0.659629 
9   -0.571225 
10   1.063688 
11   0.124687 
12   0.13218 
13   0.144616 
14   0.133491 
15   0.131172 
16   0.16432 
17   0.168506 
18   0.138239 
19   0.13731 
20   0.165033 
21   0.180638 
22   0.436426 
23   0.435827 
 
>  <lowdin_charges> 
23 
1   -0.275946 
2   -0.279303 
3   -0.284819 
4   -0.277598 
5   -0.273329 
6   -0.296941 
7   -0.585616 
8   -0.585201 
9   -0.614135 
10   1.051384 
11   0.133711 
12   0.144647 
13   0.144993 
14   0.144857 
15   0.14594 
16   0.154072 
17   0.164029 
18   0.144598 
19   0.143768 
20   0.159715 
21   0.180259 
22   0.381019 
23   0.379897 
 
$$$$ 
 
