PCCDB-ID:  11529 
public computational chemistry database (PCCDB) project, http://pccdb.org 
 
 23 22  0  0  0  0  0  0  0  0999 V2000 
    0.7080    0.6287    0.0819 C   0  0  0  0  0  0  0  0  0  0  0  0 
    4.6098   -5.9560   -1.7477 C   0  0  0  0  0  0  0  0  0  0  0  0 
    2.2103    0.3272    0.0906 C   0  0  0  0  0  0  0  0  0  0  0  0 
    4.7340   -4.5137   -2.2345 C   0  0  0  0  0  0  0  0  0  0  0  0 
    2.5805   -0.8775   -0.7852 C   0  0  0  0  0  0  0  0  0  0  0  0 
    4.0784   -1.1635   -0.7680 C   0  0  0  0  0  0  0  0  0  0  0  0 
    4.3334   -3.4988   -1.1798 C   0  0  0  0  0  0  0  0  0  0  0  0 
    3.9834   -3.7629   -0.0492 O   0  0  0  0  0  0  0  0  0  0  0  0 
    4.4269   -2.2399   -1.6697 O   0  0  0  0  0  0  0  0  0  0  0  0 
    0.4714    1.4893    0.7175 H   0  0  0  0  0  0  0  0  0  0  0  0 
    0.1313   -0.2280    0.4508 H   0  0  0  0  0  0  0  0  0  0  0  0 
    0.3551    0.8544   -0.9317 H   0  0  0  0  0  0  0  0  0  0  0  0 
    4.9083   -6.6531   -2.5375 H   0  0  0  0  0  0  0  0  0  0  0  0 
    3.5805   -6.1847   -1.4557 H   0  0  0  0  0  0  0  0  0  0  0  0 
    5.2441   -6.1307   -0.8737 H   0  0  0  0  0  0  0  0  0  0  0  0 
    2.5394    0.1418    1.1225 H   0  0  0  0  0  0  0  0  0  0  0  0 
    2.7629    1.2136   -0.2525 H   0  0  0  0  0  0  0  0  0  0  0  0 
    4.1160   -4.3341   -3.1234 H   0  0  0  0  0  0  0  0  0  0  0  0 
    5.7620   -4.2831   -2.5433 H   0  0  0  0  0  0  0  0  0  0  0  0 
    2.2643   -0.6984   -1.8216 H   0  0  0  0  0  0  0  0  0  0  0  0 
    2.0481   -1.7694   -0.4334 H   0  0  0  0  0  0  0  0  0  0  0  0 
    4.4178   -1.4207    0.2392 H   0  0  0  0  0  0  0  0  0  0  0  0 
    4.6498   -0.3053   -1.1336 H   0  0  0  0  0  0  0  0  0  0  0  0 
  1  3  1  0  0  0  0 
  1 11  1  0  0  0  0 
  1 10  1  0  0  0  0 
  2 14  1  0  0  0  0 
  2 15  1  0  0  0  0 
  3 16  1  0  0  0  0 
  4  2  1  0  0  0  0 
  4  7  1  0  0  0  0 
  5  6  1  0  0  0  0 
  5 21  1  0  0  0  0 
  5  3  1  0  0  0  0 
  6 22  1  0  0  0  0 
  7  8  2  0  0  0  0 
  9  7  1  0  0  0  0 
  9  6  1  0  0  0  0 
 12  1  1  0  0  0  0 
 13  2  1  0  0  0  0 
 17  3  1  0  0  0  0 
 18  4  1  0  0  0  0 
 19  4  1  0  0  0  0 
 20  5  1  0  0  0  0 
 23  6  1  0  0  0  0 
M  END 
>  <HBA> 
2 
 
>  <HBD> 
0 
 
>  <TPSA> 
26.3 
 
>  <cid> 
11529 
 
>  <dipole> 
1.61 
 
>  <excitation_energy_1> 
5.844 
 
>  <excitation_energy_2> 
6.986 
 
>  <excitation_energy_3> 
7.431 
 
>  <excitation_energy_4> 
7.531 
 
>  <homo_energy> 
-7.266 
 
>  <homo_lumo_gap> 
7.75 
 
>  <logP> 
1.74 
 
>  <lumo_energy> 
0.484 
 
>  <melting_point> 
-14.79 
 
>  <molecular_refractivity> 
37.05 
 
>  <oscillator_strength_1> 
0.0007 
 
>  <oscillator_strength_2> 
0.0234 
 
>  <oscillator_strength_3> 
0.0408 
 
>  <oscillator_strength_4> 
0.041 
 
>  <open_babel_can_smiles> 
CCCCOC(=O)CC 
 
>  <mulliken_charges> 
23 
1   -0.441172 
2   -0.435023 
3   -0.258334 
4   -0.352491 
5   -0.271794 
6   -0.043823 
7   0.621866 
8   -0.479198 
9   -0.468742 
10   0.144851 
11   0.147476 
12   0.143523 
13   0.142016 
14   0.160887 
15   0.162626 
16   0.140366 
17   0.132089 
18   0.171175 
19   0.1722 
20   0.140004 
21   0.158932 
22   0.165648 
23   0.146917 
 
>  <lowdin_charges> 
23 
1   -0.44326 
2   -0.439741 
3   -0.271322 
4   -0.298844 
5   -0.28654 
6   -0.133143 
7   0.196917 
8   -0.268785 
9   -0.19826 
10   0.15163 
11   0.150312 
12   0.146843 
13   0.152273 
14   0.157756 
15   0.160025 
16   0.142509 
17   0.139965 
18   0.168286 
19   0.167802 
20   0.144065 
21   0.155341 
22   0.155622 
23   0.15055 
 
$$$$ 
 
