PCCDB-ID:  6572 
public computational chemistry database (PCCDB) project, http://pccdb.org 
 
 10  9  0  0  1  0  0  0  0  0999 V2000 
    1.0239    0.0713   -0.0534 C   0  0  0  0  0  0  0  0  0  0  0  0 
    3.0684    0.2565   -1.4529 C   0  0  0  0  0  0  0  0  0  0  0  0 
    2.5570    0.1001   -0.0681 C   0  0  1  0  0  0  0  0  0  0  0  0 
    3.4559    0.4187   -2.5351 N   0  0  0  0  0  0  0  0  0  0  0  0 
    3.0979    1.0950    0.7867 O   0  0  0  0  0  0  0  0  0  0  0  0 
    0.6389   -0.7498   -0.6666 H   0  0  0  0  0  0  0  0  0  0  0  0 
    0.6154    1.0095   -0.4456 H   0  0  0  0  0  0  0  0  0  0  0  0 
    0.6820   -0.0601    0.9771 H   0  0  0  0  0  0  0  0  0  0  0  0 
    2.9445   -0.8470    0.3223 H   0  0  0  0  0  0  0  0  0  0  0  0 
    2.7913    1.9610    0.4703 H   0  0  0  0  0  0  0  0  0  0  0  0 
  1  8  1  0  0  0  0 
  2  3  1  0  0  0  0 
  3  1  1  0  0  0  0 
  3  9  1  1  0  0  0 
  3  5  1  0  0  0  0 
  4  2  3  0  0  0  0 
  6  1  1  0  0  0  0 
  7  1  1  0  0  0  0 
 10  5  1  0  0  0  0 
M  END 
>  <HBA> 
2 
 
>  <HBD> 
1 
 
>  <TPSA> 
44.02 
 
>  <cid> 
6572 
 
>  <dipole> 
3.27 
 
>  <excitation_energy_1> 
6.936 
 
>  <excitation_energy_2> 
7.26 
 
>  <excitation_energy_3> 
7.592 
 
>  <excitation_energy_4> 
7.768 
 
>  <homo_energy> 
-8.286 
 
>  <homo_lumo_gap> 
8.534 
 
>  <logP> 
-0.109 
 
>  <lumo_energy> 
0.248 
 
>  <melting_point> 
27.95 
 
>  <molecular_refractivity> 
17.45 
 
>  <oscillator_strength_1> 
0.0186 
 
>  <oscillator_strength_2> 
0.0013 
 
>  <oscillator_strength_3> 
0.0125 
 
>  <oscillator_strength_4> 
0.011 
 
>  <open_babel_can_smiles> 
C[C@@H](C#N)O 
 
>  <mulliken_charges> 
10 
1   -0.45803 
2   0.33536 
3   0.072739 
4   -0.463023 
5   -0.591655 
6   0.171475 
7   0.159683 
8   0.176692 
9   0.19579 
10   0.400968 
 
>  <lowdin_charges> 
10 
1   -0.449462 
2   -0.038071 
3   0.006465 
4   -0.113802 
5   -0.431826 
6   0.170112 
7   0.159498 
8   0.167536 
9   0.178118 
10   0.351432 
 
$$$$ 
 
