PCCDB-ID:  8164 
public computational chemistry database (PCCDB) project, http://pccdb.org 
 
 32 31  0  0  0  0  0  0  0  0999 V2000 
    2.2614    2.3610    2.0934 C   0  0  0  0  0  0  0  0  0  0  0  0 
    6.7219   -1.1854   -8.2181 C   0  0  0  0  0  0  0  0  0  0  0  0 
    3.6077    2.3929    1.3626 C   0  0  0  0  0  0  0  0  0  0  0  0 
    3.6196    1.5534    0.0788 C   0  0  0  0  0  0  0  0  0  0  0  0 
    4.9669    1.5769   -0.6550 C   0  0  0  0  0  0  0  0  0  0  0  0 
    4.9789    0.7513   -1.9480 C   0  0  0  0  0  0  0  0  0  0  0  0 
    6.3374    0.7807   -2.6652 C   0  0  0  0  0  0  0  0  0  0  0  0 
    6.4316   -0.1056   -3.9186 C   0  0  0  0  0  0  0  0  0  0  0  0 
    5.5406    0.3700   -5.0634 C   0  0  0  0  0  0  0  0  0  0  0  0 
    6.6844   -0.1923   -7.0791 C   0  0  0  0  0  0  0  0  0  0  0  0 
    7.4522    0.7342   -6.9341 O   0  0  0  0  0  0  0  0  0  0  0  0 
    5.6758   -0.4846   -6.2239 O   0  0  0  0  0  0  0  0  0  0  0  0 
    2.2849    2.9703    3.0041 H   0  0  0  0  0  0  0  0  0  0  0  0 
    1.9923    1.3380    2.3843 H   0  0  0  0  0  0  0  0  0  0  0  0 
    1.4552    2.7454    1.4564 H   0  0  0  0  0  0  0  0  0  0  0  0 
    7.0734   -2.1550   -7.8475 H   0  0  0  0  0  0  0  0  0  0  0  0 
    7.4042   -0.8269   -8.9897 H   0  0  0  0  0  0  0  0  0  0  0  0 
    5.7214   -1.3365   -8.6334 H   0  0  0  0  0  0  0  0  0  0  0  0 
    4.3988    2.0343    2.0364 H   0  0  0  0  0  0  0  0  0  0  0  0 
    3.8667    3.4326    1.1167 H   0  0  0  0  0  0  0  0  0  0  0  0 
    2.8298    1.9141   -0.5972 H   0  0  0  0  0  0  0  0  0  0  0  0 
    3.3566    0.5135    0.3238 H   0  0  0  0  0  0  0  0  0  0  0  0 
    5.7534    1.2051    0.0185 H   0  0  0  0  0  0  0  0  0  0  0  0 
    5.2357    2.6181   -0.8879 H   0  0  0  0  0  0  0  0  0  0  0  0 
    4.1887    1.1242   -2.6150 H   0  0  0  0  0  0  0  0  0  0  0  0 
    4.7145   -0.2914   -1.7164 H   0  0  0  0  0  0  0  0  0  0  0  0 
    7.1149    0.4594   -1.9588 H   0  0  0  0  0  0  0  0  0  0  0  0 
    6.5869    1.8173   -2.9350 H   0  0  0  0  0  0  0  0  0  0  0  0 
    6.1683   -1.1418   -3.6672 H   0  0  0  0  0  0  0  0  0  0  0  0 
    7.4672   -0.1127   -4.2772 H   0  0  0  0  0  0  0  0  0  0  0  0 
    5.7879    1.3965   -5.3482 H   0  0  0  0  0  0  0  0  0  0  0  0 
    4.4803    0.3095   -4.8082 H   0  0  0  0  0  0  0  0  0  0  0  0 
  1 14  1  0  0  0  0 
  1 13  1  0  0  0  0 
  2 16  1  0  0  0  0 
  2 10  1  0  0  0  0 
  3 19  1  0  0  0  0 
  3  1  1  0  0  0  0 
  4 22  1  0  0  0  0 
  4  3  1  0  0  0  0 
  5 23  1  0  0  0  0 
  5  4  1  0  0  0  0 
  6 26  1  0  0  0  0 
  6  5  1  0  0  0  0 
  7 27  1  0  0  0  0 
  7  6  1  0  0  0  0 
  8 29  1  0  0  0  0 
  8  7  1  0  0  0  0 
  9 32  1  0  0  0  0 
  9  8  1  0  0  0  0 
 10 11  2  0  0  0  0 
 10 12  1  0  0  0  0 
 12  9  1  0  0  0  0 
 15  1  1  0  0  0  0 
 17  2  1  0  0  0  0 
 18  2  1  0  0  0  0 
 20  3  1  0  0  0  0 
 21  4  1  0  0  0  0 
 24  5  1  0  0  0  0 
 25  6  1  0  0  0  0 
 28  7  1  0  0  0  0 
 30  8  1  0  0  0  0 
 31  9  1  0  0  0  0 
M  END 
>  <HBA> 
2 
 
>  <HBD> 
0 
 
>  <TPSA> 
26.3 
 
>  <cid> 
8164 
 
>  <dipole> 
1.76 
 
>  <excitation_energy_1> 
5.812 
 
>  <excitation_energy_2> 
7.007 
 
>  <excitation_energy_3> 
7.395 
 
>  <excitation_energy_4> 
7.445 
 
>  <homo_energy> 
-7.255 
 
>  <homo_lumo_gap> 
7.712 
 
>  <logP> 
2.91 
 
>  <lumo_energy> 
0.457 
 
>  <melting_point> 
-16.78 
 
>  <molecular_refractivity> 
51.47 
 
>  <oscillator_strength_1> 
0.0011 
 
>  <oscillator_strength_2> 
0.0346 
 
>  <oscillator_strength_3> 
0.009 
 
>  <oscillator_strength_4> 
0.0723 
 
>  <open_babel_can_smiles> 
CCCCCCCCOC(=O)C 
 
>  <mulliken_charges> 
32 
1   -0.441598 
2   -0.523114 
3   -0.246808 
4   -0.246525 
5   -0.253025 
6   -0.257839 
7   -0.267072 
8   -0.278248 
9   -0.044888 
10   0.600729 
11   -0.470427 
12   -0.457017 
13   0.142053 
14   0.141181 
15   0.141232 
16   0.182345 
17   0.181492 
18   0.17876 
19   0.130415 
20   0.130629 
21   0.126285 
22   0.12669 
23   0.128464 
24   0.129096 
25   0.130141 
26   0.12932 
27   0.136258 
28   0.137114 
29   0.138828 
30   0.158239 
31   0.16572 
32   0.151568 
 
>  <lowdin_charges> 
32 
1   -0.44473 
2   -0.465359 
3   -0.271924 
4   -0.274524 
5   -0.273818 
6   -0.277411 
7   -0.274748 
8   -0.285768 
9   -0.131523 
10   0.199582 
11   -0.269143 
12   -0.198769 
13   0.149544 
14   0.145378 
15   0.147087 
16   0.178453 
17   0.176171 
18   0.174783 
19   0.139863 
20   0.137864 
21   0.13801 
22   0.136193 
23   0.139168 
24   0.137468 
25   0.138333 
26   0.137278 
27   0.146693 
28   0.141485 
29   0.143422 
30   0.156238 
31   0.155219 
32   0.149484 
 
$$$$ 
 
