PCCDB-ID:  30450 
public computational chemistry database (PCCDB) project, http://pccdb.org 
 
 29 30  0  0  0  0  0  0  0  0999 V2000 
    4.5536    0.3384   -0.4350 C   0  0  0  0  0  0  0  0  0  0  0  0 
    3.2617   -0.4616   -0.5967 C   0  0  0  0  0  0  0  0  0  0  0  0 
    1.0668   -6.2037    0.1714 C   0  0  0  0  0  0  0  0  0  0  0  0 
    0.2207   -7.0734   -0.5071 C   0  0  0  0  0  0  0  0  0  0  0  0 
   -0.4017   -5.2561   -2.0054 C   0  0  0  0  0  0  0  0  0  0  0  0 
    2.1184   -3.9284    0.5213 C   0  0  0  0  0  0  0  0  0  0  0  0 
    0.5837   -2.9418   -1.7362 C   0  0  0  0  0  0  0  0  0  0  0  0 
    1.1941   -4.8667   -0.2251 C   0  0  0  0  0  0  0  0  0  0  0  0 
    0.4467   -4.3910   -1.3151 C   0  0  0  0  0  0  0  0  0  0  0  0 
   -0.5011   -6.5812   -1.5934 C   0  0  0  0  0  0  0  0  0  0  0  0 
    3.3727   -1.8490    0.0155 C   0  0  0  0  0  0  0  0  0  0  0  0 
    2.3393   -2.7300   -0.2718 N   0  0  0  0  0  0  0  0  0  0  0  0 
   -1.4018   -7.4867   -2.3236 N   0  0  0  0  0  0  0  0  0  0  0  0 
    4.3172   -2.2277    0.6930 O   0  0  0  0  0  0  0  0  0  0  0  0 
   -1.4755   -8.6525   -1.9369 O   0  0  0  0  0  0  0  0  0  0  0  0 
   -2.0274   -7.0242   -3.2777 O   0  0  0  0  0  0  0  0  0  0  0  0 
    1.1113   -2.1460   -0.6716 O   0  0  0  0  0  0  0  0  0  0  0  0 
    4.4309    1.3439   -0.8506 H   0  0  0  0  0  0  0  0  0  0  0  0 
    5.3868   -0.1490   -0.9505 H   0  0  0  0  0  0  0  0  0  0  0  0 
    4.8298    0.4277    0.6191 H   0  0  0  0  0  0  0  0  0  0  0  0 
    2.9793   -0.5578   -1.6519 H   0  0  0  0  0  0  0  0  0  0  0  0 
    2.4173    0.0527   -0.1189 H   0  0  0  0  0  0  0  0  0  0  0  0 
    1.6434   -6.5686    1.0176 H   0  0  0  0  0  0  0  0  0  0  0  0 
    0.1140   -8.1112   -0.2176 H   0  0  0  0  0  0  0  0  0  0  0  0 
   -0.9914   -4.9195   -2.8509 H   0  0  0  0  0  0  0  0  0  0  0  0 
    3.0966   -4.3816    0.6962 H   0  0  0  0  0  0  0  0  0  0  0  0 
    1.6921   -3.6721    1.5042 H   0  0  0  0  0  0  0  0  0  0  0  0 
   -0.3913   -2.4982   -1.9601 H   0  0  0  0  0  0  0  0  0  0  0  0 
    1.2253   -2.8493   -2.6241 H   0  0  0  0  0  0  0  0  0  0  0  0 
  1 20  1  0  0  0  0 
  2  1  1  0  0  0  0 
  2 22  1  0  0  0  0 
  2 11  1  0  0  0  0 
  3 23  1  0  0  0  0 
  4 24  1  0  0  0  0 
  4  3  2  0  0  0  0 
  5 10  2  0  0  0  0 
  5  9  1  0  0  0  0 
  6 26  1  0  0  0  0 
  6 27  1  0  0  0  0 
  7  9  1  0  0  0  0 
  7 17  1  0  0  0  0 
  8  3  1  0  0  0  0 
  8  6  1  0  0  0  0 
  9  8  2  0  0  0  0 
 10  4  1  0  0  0  0 
 11 14  2  0  0  0  0 
 12 11  1  0  0  0  0 
 12  6  1  0  0  0  0 
 13 15  2  0  0  0  0 
 13 10  1  0  0  0  0 
 16 13  2  0  0  0  0 
 17 12  1  0  0  0  0 
 18  1  1  0  0  0  0 
 19  1  1  0  0  0  0 
 21  2  1  0  0  0  0 
 25  5  1  0  0  0  0 
 28  7  1  0  0  0  0 
 29  7  1  0  0  0  0 
M  END 
>  <HBA> 
3 
 
>  <HBD> 
0 
 
>  <TPSA> 
75.36 
 
>  <cid> 
30450 
 
>  <dipole> 
2.54 
 
>  <excitation_energy_1> 
3.691 
 
>  <excitation_energy_2> 
3.748 
 
>  <excitation_energy_3> 
4.099 
 
>  <excitation_energy_4> 
4.224 
 
>  <homo_energy> 
-6.887 
 
>  <homo_lumo_gap> 
4.313 
 
>  <logP> 
2.24 
 
>  <lumo_energy> 
-2.574 
 
>  <melting_point> 
89.8 
 
>  <molecular_refractivity> 
65.6 
 
>  <oscillator_strength_1> 
0.0095 
 
>  <oscillator_strength_2> 
0.0003 
 
>  <oscillator_strength_3> 
0.0057 
 
>  <oscillator_strength_4> 
0.0249 
 
>  <open_babel_can_smiles> 
CCC(=O)N1OCc2c(C1)ccc(c2)N(=O)=O 
 
>  <mulliken_charges> 
29 
1   -0.435589 
2   -0.347816 
3   -0.195224 
4   -0.148298 
5   -0.211884 
6   -0.172686 
7   -0.073508 
8   0.11946 
9   0.078668 
10   0.279334 
11   0.603237 
12   -0.250809 
13   0.379664 
14   -0.502611 
15   -0.392098 
16   -0.3948 
17   -0.388411 
18   0.141535 
19   0.159289 
20   0.166817 
21   0.162948 
22   0.176855 
23   0.151041 
24   0.186494 
25   0.180677 
26   0.204956 
27   0.17922 
28   0.17611 
29   0.16743 
 
>  <lowdin_charges> 
29 
1   -0.43773 
2   -0.301111 
3   -0.150962 
4   -0.133817 
5   -0.142057 
6   -0.19481 
7   -0.130435 
8   0.007404 
9   -0.0238 
10   0.002217 
11   0.163722 
12   -0.014966 
13   0.307907 
14   -0.286396 
15   -0.242092 
16   -0.246915 
17   -0.196882 
18   0.150499 
19   0.158706 
20   0.160775 
21   0.161749 
22   0.170875 
23   0.169844 
24   0.188878 
25   0.18725 
26   0.187984 
27   0.16161 
28   0.167728 
29   0.154828 
 
$$$$ 
 
