PCCDB-ID:  20792 
public computational chemistry database (PCCDB) project, http://pccdb.org 
 
 13 12  0  0  0  0  0  0  0  0999 V2000 
    1.1059   -0.4688    0.1893 C   0  0  0  0  0  0  0  0  0  0  0  0 
   -0.2385   -1.1502    0.4780 C   0  0  0  0  0  0  0  0  0  0  0  0 
   -0.9959   -0.9072    1.4727 N   0  0  0  0  0  0  0  0  0  0  0  0 
    1.8045   -1.9119   -1.5942 N   0  0  0  0  0  0  0  0  0  0  0  0 
    2.2040   -1.3280   -0.2952 N   0  0  0  0  0  0  0  0  0  0  0  0 
   -0.6320   -2.0585   -0.4386 O   0  0  0  0  0  0  0  0  0  0  0  0 
    1.4692    0.0158    1.1009 H   0  0  0  0  0  0  0  0  0  0  0  0 
    0.9608    0.3232   -0.5579 H   0  0  0  0  0  0  0  0  0  0  0  0 
   -0.5594   -0.2106    2.0794 H   0  0  0  0  0  0  0  0  0  0  0  0 
    2.4005   -2.7298   -1.7279 H   0  0  0  0  0  0  0  0  0  0  0  0 
    2.1319   -1.2391   -2.2907 H   0  0  0  0  0  0  0  0  0  0  0  0 
    2.2612   -2.1278    0.3374 H   0  0  0  0  0  0  0  0  0  0  0  0 
    0.0781   -2.1337   -1.1255 H   0  0  0  0  0  0  0  0  0  0  0  0 
  1  2  1  0  0  0  0 
  1  7  1  0  0  0  0 
  2  3  2  0  0  0  0 
  3  9  1  0  0  0  0 
  4  5  1  0  0  0  0 
  5  1  1  0  0  0  0 
  5 12  1  0  0  0  0 
  6  2  1  0  0  0  0 
  8  1  1  0  0  0  0 
 10  4  1  0  0  0  0 
 11  4  1  0  0  0  0 
 13  6  1  0  0  0  0 
M  END 
>  <HBA> 
4 
 
>  <HBD> 
3 
 
>  <TPSA> 
81.14 
 
>  <cid> 
20792 
 
>  <dipole> 
5.38 
 
>  <excitation_energy_1> 
5.025 
 
>  <excitation_energy_2> 
5.722 
 
>  <excitation_energy_3> 
5.892 
 
>  <excitation_energy_4> 
6.033 
 
>  <homo_energy> 
-6.128 
 
>  <homo_lumo_gap> 
6.898 
 
>  <logP> 
-0.274 
 
>  <lumo_energy> 
0.77 
 
>  <melting_point> 
133.16 
 
>  <molecular_refractivity> 
20.14 
 
>  <oscillator_strength_1> 
0.0002 
 
>  <oscillator_strength_2> 
0.0083 
 
>  <oscillator_strength_3> 
0.0051 
 
>  <oscillator_strength_4> 
0.0133 
 
>  <open_babel_can_smiles> 
NNCC(=N)O 
 
>  <mulliken_charges> 
13 
1   -0.235326 
2   0.458825 
3   -0.585637 
4   -0.638285 
5   -0.44118 
6   -0.600111 
7   0.164696 
8   0.174016 
9   0.272516 
10   0.330977 
11   0.336858 
12   0.320261 
13   0.44239 
 
>  <lowdin_charges> 
13 
1   -0.252371 
2   0.102643 
3   -0.412329 
4   -0.475994 
5   -0.309685 
6   -0.386119 
7   0.164477 
8   0.163213 
9   0.250886 
10   0.272129 
11   0.272412 
12   0.261721 
13   0.349017 
 
$$$$ 
 
