PCCDB-ID:  35319 
public computational chemistry database (PCCDB) project, http://pccdb.org 
 
 27 28  0  0  1  0  0  0  0  0999 V2000 
    0.8284    3.5854   -1.1996 C   0  0  0  0  0  0  0  0  0  0  0  0 
    3.3371   -1.6981    0.3642 C   0  0  0  0  0  0  0  0  0  0  0  0 
    5.8224    1.1537   -2.4392 C   0  0  0  0  0  0  0  0  0  0  0  0 
    6.0161    2.3379   -3.0285 C   0  0  0  0  0  0  0  0  0  0  0  0 
    2.0354    3.0253   -0.4934 C   0  0  2  0  0  0  0  0  0  0  0  0 
    4.3297   -0.5665    0.3660 C   0  0  0  0  0  0  0  0  0  0  0  0 
    5.3440    1.0797   -1.0211 C   0  0  1  0  0  0  0  0  0  0  0  0 
    5.7993    3.6118   -2.3025 C   0  0  0  0  0  0  0  0  0  0  0  0 
    3.1154    2.3291   -1.2076 C   0  0  1  0  0  0  0  0  0  0  0  0 
    4.5271    2.3335   -0.6504 C   0  0  2  0  0  0  0  0  0  0  0  0 
    4.8759   -0.0945    1.3364 O   0  0  0  0  0  0  0  0  0  0  0  0 
    6.1576    4.6864   -2.7236 O   0  0  0  0  0  0  0  0  0  0  0  0 
    2.1512    1.5884   -0.4470 O   0  0  0  0  0  0  0  0  0  0  0  0 
    4.5262   -0.0989   -0.9022 O   0  0  0  0  0  0  0  0  0  0  0  0 
    5.2055    3.5390   -1.0719 O   0  0  0  0  0  0  0  0  0  0  0  0 
    0.9774    4.6479   -1.4241 H   0  0  0  0  0  0  0  0  0  0  0  0 
   -0.0632    3.4936   -0.5692 H   0  0  0  0  0  0  0  0  0  0  0  0 
    0.6418    3.0514   -2.1365 H   0  0  0  0  0  0  0  0  0  0  0  0 
    3.5277   -2.3879   -0.4623 H   0  0  0  0  0  0  0  0  0  0  0  0 
    2.3372   -1.2723    0.2232 H   0  0  0  0  0  0  0  0  0  0  0  0 
    3.3781   -2.2218    1.3199 H   0  0  0  0  0  0  0  0  0  0  0  0 
    6.0286    0.2149   -2.9475 H   0  0  0  0  0  0  0  0  0  0  0  0 
    6.3944    2.4388   -4.0398 H   0  0  0  0  0  0  0  0  0  0  0  0 
    2.2992    3.5102    0.4489 H   0  0  0  0  0  0  0  0  0  0  0  0 
    6.1906    0.9854   -0.3298 H   0  0  0  0  0  0  0  0  0  0  0  0 
    3.0280    2.2083   -2.2888 H   0  0  0  0  0  0  0  0  0  0  0  0 
    4.4680    2.4071    0.4368 H   0  0  0  0  0  0  0  0  0  0  0  0 
  1 17  1  0  0  0  0 
  1  5  1  0  0  0  0 
  2  6  1  0  0  0  0 
  2 21  1  0  0  0  0 
  3  7  1  0  0  0  0 
  4  3  2  0  0  0  0 
  4  8  1  0  0  0  0 
  5 13  1  0  0  0  0 
  5 24  1  1  0  0  0 
  6 11  2  0  0  0  0 
  7 14  1  0  0  0  0 
  7 10  1  0  0  0  0 
  7 25  1  1  0  0  0 
  8 15  1  0  0  0  0 
  9 26  1  6  0  0  0 
  9 10  1  0  0  0  0 
  9  5  1  0  0  0  0 
  9 13  1  0  0  0  0 
 10 27  1  1  0  0  0 
 12  8  2  0  0  0  0 
 14  6  1  0  0  0  0 
 15 10  1  0  0  0  0 
 16  1  1  0  0  0  0 
 18  1  1  0  0  0  0 
 19  2  1  0  0  0  0 
 20  2  1  0  0  0  0 
 22  3  1  0  0  0  0 
 23  4  1  0  0  0  0 
M  END 
>  <HBA> 
5 
 
>  <HBD> 
0 
 
>  <TPSA> 
65.13 
 
>  <cid> 
35319 
 
>  <dipole> 
3.8 
 
>  <excitation_energy_1> 
4.438 
 
>  <excitation_energy_2> 
5.058 
 
>  <excitation_energy_3> 
5.356 
 
>  <excitation_energy_4> 
5.596 
 
>  <homo_energy> 
-7.437 
 
>  <homo_lumo_gap> 
5.78 
 
>  <logP> 
0.187 
 
>  <lumo_energy> 
-1.657 
 
>  <melting_point> 
41.66 
 
>  <molecular_refractivity> 
49.14 
 
>  <oscillator_strength_1> 
0.0012 
 
>  <oscillator_strength_2> 
0.0064 
 
>  <oscillator_strength_3> 
0.0663 
 
>  <oscillator_strength_4> 
0.0011 
 
>  <open_babel_can_smiles> 
CC(=O)O[C@H]1C=CC(=O)O[C@H]1[C@H]1O[C@@H]1C 
 
>  <mulliken_charges> 
27 
1   -0.471992 
2   -0.533466 
3   -0.121601 
4   -0.177068 
5   0.098223 
6   0.62853 
7   0.082714 
8   0.597779 
9   0.089382 
10   0.049185 
11   -0.462692 
12   -0.450881 
13   -0.46183 
14   -0.476465 
15   -0.476462 
16   0.164816 
17   0.16496 
18   0.161267 
19   0.178099 
20   0.209729 
21   0.184368 
22   0.170695 
23   0.168124 
24   0.152631 
25   0.196179 
26   0.150603 
27   0.185172 
 
>  <lowdin_charges> 
27 
1   -0.443882 
2   -0.464689 
3   -0.125278 
4   -0.196285 
5   -0.010582 
6   0.216161 
7   -0.01123 
8   0.192104 
9   -0.040192 
10   -0.01036 
11   -0.256395 
12   -0.228637 
13   -0.290141 
14   -0.194698 
15   -0.188463 
16   0.164203 
17   0.163576 
18   0.162017 
19   0.176498 
20   0.192673 
21   0.177677 
22   0.17751 
23   0.182609 
24   0.153919 
25   0.175741 
26   0.152684 
27   0.173459 
 
$$$$ 
 
