PCCDB-ID:  58483 
public computational chemistry database (PCCDB) project, http://pccdb.org 
 
 27 28  0  0  0  0  0  0  0  0999 V2000 
    2.5219    0.8186   -0.2729 C   0  0  0  0  0  0  0  0  0  0  0  0 
    2.5054   -0.5873   -0.4225 C   0  0  0  0  0  0  0  0  0  0  0  0 
   -2.3316    0.8679   -0.0154 C   0  0  0  0  0  0  0  0  0  0  0  0 
    1.3389    1.5078   -0.1365 C   0  0  0  0  0  0  0  0  0  0  0  0 
   -1.1351    1.5453   -0.0200 C   0  0  0  0  0  0  0  0  0  0  0  0 
    1.3113   -1.2746   -0.4101 C   0  0  0  0  0  0  0  0  0  0  0  0 
   -2.3645   -0.5415   -0.0870 C   0  0  0  0  0  0  0  0  0  0  0  0 
    0.0884    0.8329   -0.1271 C   0  0  0  0  0  0  0  0  0  0  0  0 
    0.0726   -0.5974   -0.2447 C   0  0  0  0  0  0  0  0  0  0  0  0 
   -1.1938   -1.2747   -0.1969 C   0  0  0  0  0  0  0  0  0  0  0  0 
   -2.1553   -3.4856   -0.8837 C   0  0  0  0  0  0  0  0  0  0  0  0 
   -3.0298   -3.1585   -1.7596 N   0  0  0  0  0  0  0  0  0  0  0  0 
   -2.9519   -5.7608   -1.0039 N   0  0  0  0  0  0  0  0  0  0  0  0 
   -1.2246   -2.6802   -0.2170 N   0  0  0  0  0  0  0  0  0  0  0  0 
   -2.0198   -4.8227   -0.4840 N   0  0  0  0  0  0  0  0  0  0  0  0 
    3.4684    1.3521   -0.2786 H   0  0  0  0  0  0  0  0  0  0  0  0 
    3.4382   -1.1275   -0.5585 H   0  0  0  0  0  0  0  0  0  0  0  0 
   -3.2685    1.4113    0.0704 H   0  0  0  0  0  0  0  0  0  0  0  0 
    1.3417    2.5906   -0.0374 H   0  0  0  0  0  0  0  0  0  0  0  0 
   -1.1080    2.6290    0.0561 H   0  0  0  0  0  0  0  0  0  0  0  0 
    1.3264   -2.3493   -0.5660 H   0  0  0  0  0  0  0  0  0  0  0  0 
   -3.3148   -1.0613   -0.0291 H   0  0  0  0  0  0  0  0  0  0  0  0 
   -2.9341   -2.1811   -2.0326 H   0  0  0  0  0  0  0  0  0  0  0  0 
   -2.5492   -6.1153   -1.8713 H   0  0  0  0  0  0  0  0  0  0  0  0 
   -3.7768   -5.2272   -1.2933 H   0  0  0  0  0  0  0  0  0  0  0  0 
   -0.3882   -3.1614    0.0818 H   0  0  0  0  0  0  0  0  0  0  0  0 
   -1.9409   -4.9297    0.5223 H   0  0  0  0  0  0  0  0  0  0  0  0 
  1  4  2  0  0  0  0 
  2  6  2  0  0  0  0 
  2  1  1  0  0  0  0 
  3 18  1  0  0  0  0 
  4  8  1  0  0  0  0 
  4 19  1  0  0  0  0 
  5  3  1  0  0  0  0 
  5 20  1  0  0  0  0 
  6  9  1  0  0  0  0 
  7 22  1  0  0  0  0 
  7  3  2  0  0  0  0 
  8  5  2  0  0  0  0 
  9 10  2  0  0  0  0 
  9  8  1  0  0  0  0 
 10  7  1  0  0  0  0 
 11 15  1  0  0  0  0 
 11 14  1  0  0  0  0 
 12 11  2  0  0  0  0 
 13 15  1  0  0  0  0 
 14 10  1  0  0  0  0 
 14 26  1  0  0  0  0 
 15 27  1  0  0  0  0 
 16  1  1  0  0  0  0 
 17  2  1  0  0  0  0 
 21  6  1  0  0  0  0 
 23 12  1  0  0  0  0 
 24 13  1  0  0  0  0 
 25 13  1  0  0  0  0 
M  END 
>  <HBA> 
4 
 
>  <HBD> 
3 
 
>  <TPSA> 
76.43 
 
>  <cid> 
58483 
 
>  <dipole> 
2.69 
 
>  <excitation_energy_1> 
3.814 
 
>  <excitation_energy_2> 
4.223 
 
>  <excitation_energy_3> 
4.697 
 
>  <excitation_energy_4> 
4.938 
 
>  <homo_energy> 
-5.535 
 
>  <homo_lumo_gap> 
4.348 
 
>  <logP> 
3.041 
 
>  <lumo_energy> 
-1.186 
 
>  <melting_point> 
209.57 
 
>  <molecular_refractivity> 
61.37 
 
>  <oscillator_strength_1> 
0.1389 
 
>  <oscillator_strength_2> 
0.0154 
 
>  <oscillator_strength_3> 
0.0113 
 
>  <oscillator_strength_4> 
0.0047 
 
>  <open_babel_can_smiles> 
NNC(=N)Nc1cccc2c1cccc2 
 
>  <mulliken_charges> 
27 
1   -0.131063 
2   -0.134158 
3   -0.145266 
4   -0.195204 
5   -0.188693 
6   -0.19838 
7   -0.185106 
8   0.125555 
9   0.094336 
10   0.283254 
11   0.621004 
12   -0.658931 
13   -0.576808 
14   -0.743628 
15   -0.511035 
16   0.133528 
17   0.133135 
18   0.135201 
19   0.133599 
20   0.129499 
21   0.123745 
22   0.152031 
23   0.291817 
24   0.319002 
25   0.329322 
26   0.332338 
27   0.330906 
 
>  <lowdin_charges> 
27 
1   -0.156634 
2   -0.156039 
3   -0.150914 
4   -0.150076 
5   -0.16852 
6   -0.164406 
7   -0.193035 
8   0.00633 
9   -0.021682 
10   0.053012 
11   0.117116 
12   -0.47172 
13   -0.468384 
14   -0.276871 
15   -0.265743 
16   0.160614 
17   0.160556 
18   0.161773 
19   0.157487 
20   0.156779 
21   0.152161 
22   0.169668 
23   0.259978 
24   0.262177 
25   0.265402 
26   0.287523 
27   0.273447 
 
$$$$ 
 
