PCCDB-ID:  15356 
public computational chemistry database (PCCDB) project, http://pccdb.org 
 
 13 12  0  0  0  0  0  0  0  0999 V2000 
    0.9966   -0.4765    0.1893 C   0  0  0  0  0  0  0  0  0  0  0  0 
    5.1874   -0.4877   -0.0202 C   0  0  0  0  0  0  0  0  0  0  0  0 
    3.0355   -0.4451   -1.1793 C   0  0  0  0  0  0  0  0  0  0  0  0 
    5.7942   -0.4897    0.9783 N   0  0  0  0  0  0  0  0  0  0  0  0 
    2.5204   -0.4356   -2.3500 N   0  0  0  0  0  0  0  0  0  0  0  0 
    2.4377   -0.3837    0.0529 N   0  0  0  0  0  0  0  0  0  0  0  0 
    4.4533   -0.4981   -1.1318 N   0  0  0  0  0  0  0  0  0  0  0  0 
    0.7421   -0.3892    1.2475 H   0  0  0  0  0  0  0  0  0  0  0  0 
    0.5953   -1.4267   -0.1916 H   0  0  0  0  0  0  0  0  0  0  0  0 
    0.5076    0.3477   -0.3423 H   0  0  0  0  0  0  0  0  0  0  0  0 
    1.5028   -0.4138   -2.3181 H   0  0  0  0  0  0  0  0  0  0  0  0 
    2.9989   -0.6173    0.8611 H   0  0  0  0  0  0  0  0  0  0  0  0 
    4.8985   -0.5212   -2.0410 H   0  0  0  0  0  0  0  0  0  0  0  0 
  1  8  1  0  0  0  0 
  2  4  3  0  0  0  0 
  3  7  1  0  0  0  0 
  3  6  1  0  0  0  0 
  5 11  1  0  0  0  0 
  5  3  2  0  0  0  0 
  6  1  1  0  0  0  0 
  6 12  1  0  0  0  0 
  7  2  1  0  0  0  0 
  9  1  1  0  0  0  0 
 10  1  1  0  0  0  0 
 13  7  1  0  0  0  0 
M  END 
>  <HBA> 
4 
 
>  <HBD> 
2 
 
>  <TPSA> 
74.2 
 
>  <cid> 
15356 
 
>  <dipole> 
3.2 
 
>  <excitation_energy_1> 
5.638 
 
>  <excitation_energy_2> 
5.684 
 
>  <excitation_energy_3> 
6.163 
 
>  <excitation_energy_4> 
6.318 
 
>  <homo_energy> 
-6.602 
 
>  <homo_lumo_gap> 
7.004 
 
>  <logP> 
0.093 
 
>  <lumo_energy> 
0.403 
 
>  <melting_point> 
108.62 
 
>  <molecular_refractivity> 
25.48 
 
>  <oscillator_strength_1> 
0.0013 
 
>  <oscillator_strength_2> 
0.0069 
 
>  <oscillator_strength_3> 
0.0024 
 
>  <oscillator_strength_4> 
0.0036 
 
>  <open_babel_can_smiles> 
CNC(=N)NC#N 
 
>  <mulliken_charges> 
13 
1   -0.318061 
2   0.521808 
3   0.661336 
4   -0.449044 
5   -0.659248 
6   -0.611842 
7   -0.679453 
8   0.172797 
9   0.166897 
10   0.17528 
11   0.292023 
12   0.350964 
13   0.376543 
 
>  <lowdin_charges> 
13 
1   -0.350009 
2   -0.000858 
3   0.146617 
4   -0.159431 
5   -0.465381 
6   -0.301143 
7   -0.227981 
8   0.167533 
9   0.150224 
10   0.160557 
11   0.259867 
12   0.297083 
13   0.322923 
 
$$$$ 
 
