PCCDB-ID:  62131 
public computational chemistry database (PCCDB) project, http://pccdb.org 
 
 17 17  0  0  0  0  0  0  0  0999 V2000 
    4.7853   -0.1101    0.8855 C   0  0  0  0  0  0  0  0  0  0  0  0 
    7.9000    3.9872   -4.2018 C   0  0  0  0  0  0  0  0  0  0  0  0 
    6.8386    3.0273   -4.2365 C   0  0  0  0  0  0  0  0  0  0  0  0 
    8.5435    3.7927   -3.0178 C   0  0  0  0  0  0  0  0  0  0  0  0 
    6.1058    1.2194   -2.4922 C   0  0  0  0  0  0  0  0  0  0  0  0 
    6.9165    2.3142   -3.0727 C   0  0  0  0  0  0  0  0  0  0  0  0 
    7.9597    2.7826   -2.3158 O   0  0  0  0  0  0  0  0  0  0  0  0 
    3.8198    0.2465   -0.6362 S   0  0  0  0  0  0  0  0  0  0  0  0 
    4.7510    1.9376   -1.4118 S   0  0  0  0  0  0  0  0  0  0  0  0 
    4.2922   -0.9624    1.3644 H   0  0  0  0  0  0  0  0  0  0  0  0 
    4.7677    0.7465    1.5623 H   0  0  0  0  0  0  0  0  0  0  0  0 
    5.8170   -0.3809    0.6490 H   0  0  0  0  0  0  0  0  0  0  0  0 
    8.1501    4.7168   -4.9593 H   0  0  0  0  0  0  0  0  0  0  0  0 
    6.1082    2.8853   -5.0211 H   0  0  0  0  0  0  0  0  0  0  0  0 
    9.3963    4.2575   -2.5468 H   0  0  0  0  0  0  0  0  0  0  0  0 
    6.7248    0.5629   -1.8762 H   0  0  0  0  0  0  0  0  0  0  0  0 
    5.6296    0.6317   -3.2792 H   0  0  0  0  0  0  0  0  0  0  0  0 
  1 10  1  0  0  0  0 
  1 11  1  0  0  0  0 
  2  4  2  0  0  0  0 
  3  2  1  0  0  0  0 
  3  6  2  0  0  0  0 
  4 15  1  0  0  0  0 
  4  7  1  0  0  0  0 
  5 16  1  0  0  0  0 
  5  9  1  0  0  0  0 
  6  5  1  0  0  0  0 
  6  7  1  0  0  0  0 
  8  1  1  0  0  0  0 
  9  8  1  0  0  0  0 
 12  1  1  0  0  0  0 
 13  2  1  0  0  0  0 
 14  3  1  0  0  0  0 
 17  5  1  0  0  0  0 
M  END 
>  <HBA> 
3 
 
>  <HBD> 
0 
 
>  <TPSA> 
63.74 
 
>  <cid> 
62131 
 
>  <dipole> 
2.06 
 
>  <excitation_energy_1> 
4.415 
 
>  <excitation_energy_2> 
4.543 
 
>  <excitation_energy_3> 
5.011 
 
>  <excitation_energy_4> 
5.201 
 
>  <homo_energy> 
-6.041 
 
>  <homo_lumo_gap> 
5.295 
 
>  <logP> 
2.791 
 
>  <lumo_energy> 
-0.746 
 
>  <melting_point> 
23.66 
 
>  <molecular_refractivity> 
43.66 
 
>  <oscillator_strength_1> 
0.0347 
 
>  <oscillator_strength_2> 
0.017 
 
>  <oscillator_strength_3> 
0.051 
 
>  <oscillator_strength_4> 
0.0508 
 
>  <open_babel_can_smiles> 
CSSCc1ccco1 
 
>  <mulliken_charges> 
17 
1   -0.58315 
2   -0.179177 
3   -0.188068 
4   0.087141 
5   -0.500333 
6   0.338724 
7   -0.4239 
8   0.009104 
9   0.026908 
10   0.186153 
11   0.197032 
12   0.184365 
13   0.144985 
14   0.147068 
15   0.15783 
16   0.195042 
17   0.200275 
 
>  <lowdin_charges> 
17 
1   -0.551693 
2   -0.203667 
3   -0.202054 
4   -0.076612 
5   -0.374283 
6   0.05206 
7   -0.094362 
8   0.033127 
9   0.025288 
10   0.177875 
11   0.174028 
12   0.164863 
13   0.171935 
14   0.172969 
15   0.173293 
16   0.17708 
17   0.180153 
 
$$$$ 
 
