PCCDB-ID:  16691 
public computational chemistry database (PCCDB) project, http://pccdb.org 
 
 20 20  0  0  0  0  0  0  0  0999 V2000 
    0.9723    0.0698    0.1355 C   0  0  0  0  0  0  0  0  0  0  0  0 
    2.4783   -2.5503    0.2183 C   0  0  0  0  0  0  0  0  0  0  0  0 
    5.4134   -2.4408    0.2281 C   0  0  0  0  0  0  0  0  0  0  0  0 
    3.2291    1.1881    0.1197 C   0  0  0  0  0  0  0  0  0  0  0  0 
    4.6172    1.1219    0.1308 C   0  0  0  0  0  0  0  0  0  0  0  0 
    2.4828    0.0046    0.1478 C   0  0  0  0  0  0  0  0  0  0  0  0 
    3.1846   -1.2141    0.1856 C   0  0  0  0  0  0  0  0  0  0  0  0 
    4.5961   -1.1711    0.1913 C   0  0  0  0  0  0  0  0  0  0  0  0 
    5.2985   -0.0277    0.1648 N   0  0  0  0  0  0  0  0  0  0  0  0 
    0.6304    1.1083    0.0979 H   0  0  0  0  0  0  0  0  0  0  0  0 
    0.5374   -0.3902    1.0312 H   0  0  0  0  0  0  0  0  0  0  0  0 
    0.5490   -0.4515   -0.7316 H   0  0  0  0  0  0  0  0  0  0  0  0 
    1.3929   -2.4451    0.2715 H   0  0  0  0  0  0  0  0  0  0  0  0 
    2.7943   -3.1486    1.0820 H   0  0  0  0  0  0  0  0  0  0  0  0 
    2.7072   -3.1464   -0.6750 H   0  0  0  0  0  0  0  0  0  0  0  0 
    5.1914   -3.0935   -0.6261 H   0  0  0  0  0  0  0  0  0  0  0  0 
    5.2144   -3.0273    1.1348 H   0  0  0  0  0  0  0  0  0  0  0  0 
    6.4739   -2.1829    0.2060 H   0  0  0  0  0  0  0  0  0  0  0  0 
    2.7277    2.1520    0.0903 H   0  0  0  0  0  0  0  0  0  0  0  0 
    5.2143    2.0326    0.1080 H   0  0  0  0  0  0  0  0  0  0  0  0 
  1  6  1  0  0  0  0 
  1 11  1  0  0  0  0 
  2 13  1  0  0  0  0 
  2 14  1  0  0  0  0 
  3 17  1  0  0  0  0 
  4  5  2  0  0  0  0 
  4  6  1  0  0  0  0 
  5  9  1  0  0  0  0 
  6  7  2  0  0  0  0 
  7  8  1  0  0  0  0 
  7  2  1  0  0  0  0 
  8  3  1  0  0  0  0 
  9  8  2  0  0  0  0 
 10  1  1  0  0  0  0 
 12  1  1  0  0  0  0 
 15  2  1  0  0  0  0 
 16  3  1  0  0  0  0 
 18  3  1  0  0  0  0 
 19  4  1  0  0  0  0 
 20  5  1  0  0  0  0 
M  END 
>  <HBA> 
1 
 
>  <HBD> 
0 
 
>  <TPSA> 
12.89 
 
>  <cid> 
16691 
 
>  <dipole> 
2.49 
 
>  <excitation_energy_1> 
4.995 
 
>  <excitation_energy_2> 
5.173 
 
>  <excitation_energy_3> 
5.298 
 
>  <excitation_energy_4> 
5.946 
 
>  <homo_energy> 
-6.479 
 
>  <homo_lumo_gap> 
6.226 
 
>  <logP> 
2.007 
 
>  <lumo_energy> 
-0.253 
 
>  <melting_point> 
32.33 
 
>  <molecular_refractivity> 
39.13 
 
>  <oscillator_strength_1> 
0.0039 
 
>  <oscillator_strength_2> 
0.0004 
 
>  <oscillator_strength_3> 
0.0447 
 
>  <oscillator_strength_4> 
0.0261 
 
>  <open_babel_can_smiles> 
Cc1c(C)ccnc1C 
 
>  <mulliken_charges> 
20 
1   -0.536808 
2   -0.538197 
3   -0.518941 
4   -0.192553 
5   0.036147 
6   0.15272 
7   0.087474 
8   0.256757 
9   -0.467002 
10   0.159068 
11   0.167019 
12   0.166832 
13   0.156268 
14   0.163595 
15   0.164269 
16   0.154528 
17   0.155421 
18   0.176953 
19   0.123444 
20   0.133005 
 
>  <lowdin_charges> 
20 
1   -0.44514 
2   -0.444189 
3   -0.448022 
4   -0.193622 
5   -0.094949 
6   0.014408 
7   -0.035773 
8   0.047166 
9   -0.164594 
10   0.158425 
11   0.163471 
12   0.16369 
13   0.157966 
14   0.162151 
15   0.161921 
16   0.158041 
17   0.158072 
18   0.169752 
19   0.157607 
20   0.153617 
 
$$$$ 
 
