PCCDB-ID:  16546 
public computational chemistry database (PCCDB) project, http://pccdb.org 
 
 18 18  0  0  0  0  0  0  0  0999 V2000 
    1.7775    2.1853   -0.6520 C   0  0  0  0  0  0  0  0  0  0  0  0 
    4.8822   -2.1085   -0.2918 C   0  0  0  0  0  0  0  0  0  0  0  0 
    5.5149   -0.9824   -0.9649 C   0  0  0  0  0  0  0  0  0  0  0  0 
    3.8420   -1.7764    0.5359 C   0  0  0  0  0  0  0  0  0  0  0  0 
    5.6420    0.0933   -0.1493 C   0  0  0  0  0  0  0  0  0  0  0  0 
    3.1691   -0.4717    0.6987 C   0  0  0  0  0  0  0  0  0  0  0  0 
    4.7547    1.2679   -0.3493 C   0  0  0  0  0  0  0  0  0  0  0  0 
    3.4644    0.8168    0.3324 C   0  0  0  0  0  0  0  0  0  0  0  0 
    4.8506    2.3024   -0.9768 O   0  0  0  0  0  0  0  0  0  0  0  0 
    2.5079    1.7793    0.5131 O   0  0  0  0  0  0  0  0  0  0  0  0 
    2.4432    2.6378   -1.3913 H   0  0  0  0  0  0  0  0  0  0  0  0 
    1.0504    2.9231   -0.3065 H   0  0  0  0  0  0  0  0  0  0  0  0 
    1.2486    1.3294   -1.0933 H   0  0  0  0  0  0  0  0  0  0  0  0 
    5.0770   -3.1531   -0.5282 H   0  0  0  0  0  0  0  0  0  0  0  0 
    5.4823   -0.9044   -2.0529 H   0  0  0  0  0  0  0  0  0  0  0  0 
    3.3178   -2.5921    1.0336 H   0  0  0  0  0  0  0  0  0  0  0  0 
    5.6937   -0.1650    0.9084 H   0  0  0  0  0  0  0  0  0  0  0  0 
    2.1833   -0.5603    1.1544 H   0  0  0  0  0  0  0  0  0  0  0  0 
  1 12  1  0  0  0  0 
  1 10  1  0  0  0  0 
  2  4  2  0  0  0  0 
  3  2  1  0  0  0  0 
  3  5  1  0  0  0  0 
  4  6  1  0  0  0  0 
  4 16  1  0  0  0  0 
  5 17  1  0  0  0  0 
  6 18  1  0  0  0  0 
  7  5  1  0  0  0  0 
  7  8  1  0  0  0  0 
  8 10  1  0  0  0  0 
  8  6  2  0  0  0  0 
  9  7  2  0  0  0  0 
 11  1  1  0  0  0  0 
 13  1  1  0  0  0  0 
 14  2  1  0  0  0  0 
 15  3  1  0  0  0  0 
M  RAD  2   3   2   5   2 
M  END 
>  <HBA> 
2 
 
>  <HBD> 
0 
 
>  <TPSA> 
26.3 
 
>  <cid> 
16546 
 
>  <dipole> 
3.52 
 
>  <excitation_energy_1> 
2.98 
 
>  <excitation_energy_2> 
3.38 
 
>  <excitation_energy_3> 
3.875 
 
>  <excitation_energy_4> 
4.372 
 
>  <homo_energy> 
-6.261 
 
>  <homo_lumo_gap> 
3.94 
 
>  <logP> 
1.055 
 
>  <lumo_energy> 
-2.321 
 
>  <melting_point> 
43.86 
 
>  <molecular_refractivity> 
39.2 
 
>  <oscillator_strength_1> 
0.012 
 
>  <oscillator_strength_2> 
0.0325 
 
>  <oscillator_strength_3> 
0.0029 
 
>  <oscillator_strength_4> 
0.0068 
 
>  <open_babel_can_smiles> 
COC1=CC=C[CH][CH]C1=O 
 
>  <mulliken_charges> 
18 
1   -0.214809 
2   -0.131252 
3   -0.109836 
4   -0.127666 
5   -0.227355 
6   -0.173619 
7   0.395024 
8   0.281813 
9   -0.451307 
10   -0.494827 
11   0.180671 
12   0.164188 
13   0.136236 
14   0.145908 
15   0.160215 
16   0.140797 
17   0.17302 
18   0.152798 
 
>  <lowdin_charges> 
18 
1   -0.278132 
2   -0.148597 
3   -0.13695 
4   -0.149784 
5   -0.164157 
6   -0.175492 
7   0.135758 
8   0.061487 
9   -0.222008 
10   -0.217189 
11   0.161533 
12   0.160594 
13   0.13856 
14   0.161471 
15   0.165906 
16   0.162771 
17   0.171583 
18   0.172647 
 
$$$$ 
 
