PCCDB-ID:  66120 
public computational chemistry database (PCCDB) project, http://pccdb.org 
 
 31 32  0  0  1  0  0  0  0  0999 V2000 
    5.0808   -0.3965   -1.0876 C   0  0  0  0  0  0  0  0  0  0  0  0 
    0.8412   -0.3020    5.2366 C   0  0  0  0  0  0  0  0  0  0  0  0 
    2.4646   -5.5486    2.5736 C   0  0  0  0  0  0  0  0  0  0  0  0 
    3.1251   -1.3278    0.1960 C   0  0  0  0  0  0  0  0  0  0  0  0 
    0.9405   -2.8186    5.4405 C   0  0  0  0  0  0  0  0  0  0  0  0 
    4.6289   -1.0072    0.2420 C   0  0  1  0  0  0  0  0  0  0  0  0 
    1.7039   -2.0066    3.5603 C   0  0  0  0  0  0  0  0  0  0  0  0 
    1.7941   -3.3844    3.5928 C   0  0  0  0  0  0  0  0  0  0  0  0 
    2.1332   -1.2088    2.4507 C   0  0  0  0  0  0  0  0  0  0  0  0 
    2.7828   -3.4161    1.4173 C   0  0  0  0  0  0  0  0  0  0  0  0 
    1.3214   -3.8958    4.7597 N   0  0  0  0  0  0  0  0  0  0  0  0 
    1.1426   -1.6523    4.7779 N   0  0  0  0  0  0  0  0  0  0  0  0 
    2.3208   -4.0925    2.5350 N   0  0  0  0  0  0  0  0  0  0  0  0 
    2.6434   -2.0188    1.4037 N   0  0  0  0  0  0  0  0  0  0  0  0 
    5.4113   -2.1447    0.5835 O   0  0  0  0  0  0  0  0  0  0  0  0 
    2.0808    0.0147    2.3621 O   0  0  0  0  0  0  0  0  0  0  0  0 
    3.2802   -4.0285    0.4728 O   0  0  0  0  0  0  0  0  0  0  0  0 
    4.5564    0.5433   -1.3010 H   0  0  0  0  0  0  0  0  0  0  0  0 
    4.8958   -1.0906   -1.9171 H   0  0  0  0  0  0  0  0  0  0  0  0 
    6.1550   -0.1929   -1.0506 H   0  0  0  0  0  0  0  0  0  0  0  0 
    0.4072   -0.3663    6.2366 H   0  0  0  0  0  0  0  0  0  0  0  0 
    0.1344    0.1783    4.5565 H   0  0  0  0  0  0  0  0  0  0  0  0 
    1.7533    0.2980    5.2673 H   0  0  0  0  0  0  0  0  0  0  0  0 
    2.0409   -5.8972    3.5146 H   0  0  0  0  0  0  0  0  0  0  0  0 
    3.5208   -5.8225    2.5091 H   0  0  0  0  0  0  0  0  0  0  0  0 
    1.9366   -5.9973    1.7292 H   0  0  0  0  0  0  0  0  0  0  0  0 
    2.9017   -1.9731   -0.6569 H   0  0  0  0  0  0  0  0  0  0  0  0 
    2.5522   -0.4036    0.1110 H   0  0  0  0  0  0  0  0  0  0  0  0 
    0.5076   -2.8406    6.4320 H   0  0  0  0  0  0  0  0  0  0  0  0 
    4.7986   -0.2808    1.0467 H   0  0  0  0  0  0  0  0  0  0  0  0 
    4.9787   -2.9304    0.2034 H   0  0  0  0  0  0  0  0  0  0  0  0 
  1 20  1  0  0  0  0 
  1  6  1  0  0  0  0 
  2 23  1  0  0  0  0 
  2 21  1  0  0  0  0 
  3 24  1  0  0  0  0 
  4  6  1  0  0  0  0 
  4 14  1  0  0  0  0 
  5 29  1  0  0  0  0 
  6 15  1  0  0  0  0 
  6 30  1  1  0  0  0 
  7  8  2  0  0  0  0 
  7 12  1  0  0  0  0 
  8 11  1  0  0  0  0 
  9  7  1  0  0  0  0 
 10 13  1  0  0  0  0 
 11  5  2  0  0  0  0 
 12  2  1  0  0  0  0 
 12  5  1  0  0  0  0 
 13  3  1  0  0  0  0 
 13  8  1  0  0  0  0 
 14 10  1  0  0  0  0 
 14  9  1  0  0  0  0 
 16  9  2  0  0  0  0 
 17 10  2  0  0  0  0 
 18  1  1  0  0  0  0 
 19  1  1  0  0  0  0 
 22  2  1  0  0  0  0 
 25  3  1  0  0  0  0 
 26  3  1  0  0  0  0 
 27  4  1  0  0  0  0 
 28  4  1  0  0  0  0 
 31 15  1  0  0  0  0 
M  END 
>  <HBA> 
7 
 
>  <HBD> 
1 
 
>  <TPSA> 
82.05 
 
>  <cid> 
66120 
 
>  <dipole> 
4.52 
 
>  <excitation_energy_1> 
4.636 
 
>  <excitation_energy_2> 
4.964 
 
>  <excitation_energy_3> 
5.274 
 
>  <excitation_energy_4> 
5.442 
 
>  <homo_energy> 
-6.125 
 
>  <homo_lumo_gap> 
5.173 
 
>  <logP> 
-1.185 
 
>  <lumo_energy> 
-0.952 
 
>  <melting_point> 
160.83 
 
>  <molecular_refractivity> 
62.81 
 
>  <oscillator_strength_1> 
0.1347 
 
>  <oscillator_strength_2> 
0.0002 
 
>  <oscillator_strength_3> 
0.0166 
 
>  <oscillator_strength_4> 
0.0014 
 
>  <open_babel_can_smiles> 
C[C@@H](Cn1c(=O)n(C)c2c(c1=O)n(C)cn2)O 
 
>  <mulliken_charges> 
31 
1   -0.452576 
2   -0.31702 
3   -0.323176 
4   -0.189256 
5   0.221504 
6   0.156989 
7   0.220759 
8   0.476456 
9   0.6465 
10   0.81226 
11   -0.509825 
12   -0.487711 
13   -0.58966 
14   -0.572194 
15   -0.649748 
16   -0.543948 
17   -0.559609 
18   0.138027 
19   0.140305 
20   0.161169 
21   0.167997 
22   0.199482 
23   0.201408 
24   0.200124 
25   0.185569 
26   0.183584 
27   0.172194 
28   0.183136 
29   0.171832 
30   0.144191 
31   0.411236 
 
>  <lowdin_charges> 
31 
1   -0.457796 
2   -0.340319 
3   -0.340271 
4   -0.220816 
5   -0.058637 
6   -0.000921 
7   -0.078226 
8   0.065761 
9   0.157837 
10   0.199537 
11   -0.202636 
12   0.012806 
13   -0.048916 
14   -0.08042 
15   -0.479524 
16   -0.307702 
17   -0.332348 
18   0.149889 
19   0.148528 
20   0.160186 
21   0.165239 
22   0.179382 
23   0.179382 
24   0.18193 
25   0.168894 
26   0.170746 
27   0.165899 
28   0.176593 
29   0.174339 
30   0.14523 
31   0.346355 
 
$$$$ 
 
