PCCDB-ID:  50421 
public computational chemistry database (PCCDB) project, http://pccdb.org 
 
 28 28  0  0  0  0  0  0  0  0999 V2000 
    0.6028   -0.2394    2.2807 C   0  0  0  0  0  0  0  0  0  0  0  0 
   -1.6034    7.9872   -3.8323 C   0  0  0  0  0  0  0  0  0  0  0  0 
   -0.6313    7.1766   -4.4207 C   0  0  0  0  0  0  0  0  0  0  0  0 
   -2.3645    7.4894   -2.7727 C   0  0  0  0  0  0  0  0  0  0  0  0 
   -0.4224    5.8794   -3.9497 C   0  0  0  0  0  0  0  0  0  0  0  0 
   -2.1522    6.1912   -2.3073 C   0  0  0  0  0  0  0  0  0  0  0  0 
   -0.9225    3.9740   -2.3517 C   0  0  0  0  0  0  0  0  0  0  0  0 
    0.0311    3.9768   -1.1445 C   0  0  0  0  0  0  0  0  0  0  0  0 
   -1.1780    5.3656   -2.8869 C   0  0  0  0  0  0  0  0  0  0  0  0 
   -0.6811    1.2085    0.8700 C   0  0  0  0  0  0  0  0  0  0  0  0 
    0.2784    2.6184   -0.6597 N   0  0  0  0  0  0  0  0  0  0  0  0 
   -0.8633    2.1054   -0.0116 N   0  0  0  0  0  0  0  0  0  0  0  0 
   -1.7289    0.6074    1.4922 O   0  0  0  0  0  0  0  0  0  0  0  0 
    0.5317    0.7795    1.2752 O   0  0  0  0  0  0  0  0  0  0  0  0 
    0.0998   -1.1524    1.9503 H   0  0  0  0  0  0  0  0  0  0  0  0 
    0.1564    0.1009    3.2198 H   0  0  0  0  0  0  0  0  0  0  0  0 
    1.6678   -0.4301    2.4211 H   0  0  0  0  0  0  0  0  0  0  0  0 
   -1.7698    8.9967   -4.1990 H   0  0  0  0  0  0  0  0  0  0  0  0 
   -0.0374    7.5527   -5.2501 H   0  0  0  0  0  0  0  0  0  0  0  0 
   -3.1279    8.1110   -2.3114 H   0  0  0  0  0  0  0  0  0  0  0  0 
    0.3342    5.2517   -4.4160 H   0  0  0  0  0  0  0  0  0  0  0  0 
   -2.7535    5.8073   -1.4857 H   0  0  0  0  0  0  0  0  0  0  0  0 
   -1.8623    3.5044   -2.0410 H   0  0  0  0  0  0  0  0  0  0  0  0 
   -0.4880    3.3355   -3.1295 H   0  0  0  0  0  0  0  0  0  0  0  0 
   -0.3745    4.6362   -0.3588 H   0  0  0  0  0  0  0  0  0  0  0  0 
    1.0034    4.3841   -1.4469 H   0  0  0  0  0  0  0  0  0  0  0  0 
    1.0817    2.6068   -0.0299 H   0  0  0  0  0  0  0  0  0  0  0  0 
   -2.5246    0.9932    1.0865 H   0  0  0  0  0  0  0  0  0  0  0  0 
  1 17  1  0  0  0  0 
  1 16  1  0  0  0  0 
  2  4  2  0  0  0  0 
  3  5  2  0  0  0  0 
  3  2  1  0  0  0  0 
  4 20  1  0  0  0  0 
  4  6  1  0  0  0  0 
  5  9  1  0  0  0  0 
  6 22  1  0  0  0  0 
  7 23  1  0  0  0  0 
  7  8  1  0  0  0  0 
  8 11  1  0  0  0  0 
  8 25  1  0  0  0  0 
  9  7  1  0  0  0  0 
  9  6  2  0  0  0  0 
 10 14  1  0  0  0  0 
 10 13  1  0  0  0  0 
 11 27  1  0  0  0  0 
 11 12  1  0  0  0  0 
 12 10  2  0  0  0  0 
 14  1  1  0  0  0  0 
 15  1  1  0  0  0  0 
 18  2  1  0  0  0  0 
 19  3  1  0  0  0  0 
 21  5  1  0  0  0  0 
 24  7  1  0  0  0  0 
 26  8  1  0  0  0  0 
 28 13  1  0  0  0  0 
M  END 
>  <HBA> 
4 
 
>  <HBD> 
2 
 
>  <TPSA> 
50.36 
 
>  <cid> 
50421 
 
>  <dipole> 
2.49 
 
>  <excitation_energy_1> 
4.587 
 
>  <excitation_energy_2> 
4.783 
 
>  <excitation_energy_3> 
4.825 
 
>  <excitation_energy_4> 
5.004 
 
>  <homo_energy> 
-5.138 
 
>  <homo_lumo_gap> 
5.382 
 
>  <logP> 
1.871 
 
>  <lumo_energy> 
0.245 
 
>  <melting_point> 
82.29 
 
>  <molecular_refractivity> 
53.11 
 
>  <oscillator_strength_1> 
0.0006 
 
>  <oscillator_strength_2> 
0.0138 
 
>  <oscillator_strength_3> 
0.0019 
 
>  <oscillator_strength_4> 
0.0019 
 
>  <open_babel_can_smiles> 
CO/C(=N\NCCc1ccccc1)/O 
 
>  <mulliken_charges> 
28 
1   -0.207372 
2   -0.132132 
3   -0.12778 
4   -0.12832 
5   -0.183777 
6   -0.18033 
7   -0.3405 
8   -0.107494 
9   0.165197 
10   0.73693 
11   -0.439858 
12   -0.39369 
13   -0.613272 
14   -0.479637 
15   0.171332 
16   0.167866 
17   0.169389 
18   0.124426 
19   0.125169 
20   0.124815 
21   0.122111 
22   0.123203 
23   0.161257 
24   0.147099 
25   0.126241 
26   0.135268 
27   0.309032 
28   0.424829 
 
>  <lowdin_charges> 
28 
1   -0.268741 
2   -0.162706 
3   -0.157472 
4   -0.158198 
5   -0.170006 
6   -0.168392 
7   -0.2798 
8   -0.201791 
9   0.000336 
10   0.160121 
11   -0.274685 
12   -0.210515 
13   -0.374129 
14   -0.200094 
15   0.158514 
16   0.156002 
17   0.161392 
18   0.154381 
19   0.156078 
20   0.156339 
21   0.154961 
22   0.155117 
23   0.158968 
24   0.153975 
25   0.128144 
26   0.144157 
27   0.253763 
28   0.374278 
 
$$$$ 
 
