PCCDB-ID:  16741 
public computational chemistry database (PCCDB) project, http://pccdb.org 
 
 20 20  0  0  0  0  0  0  0  0999 V2000 
   -1.2958    0.0211    0.7143 C   0  0  0  0  0  0  0  0  0  0  0  0 
   -0.6528    1.2304    0.4432 C   0  0  0  0  0  0  0  0  0  0  0  0 
   -0.6385   -1.1835    0.4574 C   0  0  0  0  0  0  0  0  0  0  0  0 
    0.6398    1.2328   -0.0821 C   0  0  0  0  0  0  0  0  0  0  0  0 
    0.6541   -1.1768   -0.0677 C   0  0  0  0  0  0  0  0  0  0  0  0 
    2.6959    0.0350   -0.9510 C   0  0  0  0  0  0  0  0  0  0  0  0 
    2.6335    0.0282   -2.4936 C   0  0  0  0  0  0  0  0  0  0  0  0 
    5.1217    0.0387   -3.0246 C   0  0  0  0  0  0  0  0  0  0  0  0 
    1.3106    0.0303   -0.3438 C   0  0  0  0  0  0  0  0  0  0  0  0 
    3.9321    0.0276   -3.0983 N   0  0  0  0  0  0  0  0  0  0  0  0 
    6.7170    0.0479   -3.0457 S   0  0  0  0  0  0  0  0  0  0  0  0 
   -2.2998    0.0176    1.1297 H   0  0  0  0  0  0  0  0  0  0  0  0 
   -1.1536    2.1725    0.6495 H   0  0  0  0  0  0  0  0  0  0  0  0 
   -1.1279   -2.1291    0.6752 H   0  0  0  0  0  0  0  0  0  0  0  0 
    1.1413    2.1787   -0.2765 H   0  0  0  0  0  0  0  0  0  0  0  0 
    1.1668   -2.1189   -0.2510 H   0  0  0  0  0  0  0  0  0  0  0  0 
    3.2567    0.9205   -0.6307 H   0  0  0  0  0  0  0  0  0  0  0  0 
    3.2656   -0.8422   -0.6235 H   0  0  0  0  0  0  0  0  0  0  0  0 
    2.0853    0.9062   -2.8552 H   0  0  0  0  0  0  0  0  0  0  0  0 
    2.0882   -0.8545   -2.8474 H   0  0  0  0  0  0  0  0  0  0  0  0 
  1 12  1  0  0  0  0 
  2 13  1  0  0  0  0 
  2  1  2  0  0  0  0 
  3 14  1  0  0  0  0 
  3  1  1  0  0  0  0 
  4  2  1  0  0  0  0 
  5  3  2  0  0  0  0 
  6 17  1  0  0  0  0 
  6 18  1  0  0  0  0 
  6  9  1  0  0  0  0 
  7  6  1  0  0  0  0 
  9  4  2  0  0  0  0 
  9  5  1  0  0  0  0 
 10  8  2  0  0  0  0 
 10  7  1  0  0  0  0 
 11  8  2  0  0  0  0 
 15  4  1  0  0  0  0 
 16  5  1  0  0  0  0 
 19  7  1  0  0  0  0 
 20  7  1  0  0  0  0 
M  END 
>  <HBA> 
2 
 
>  <HBD> 
0 
 
>  <TPSA> 
44.45 
 
>  <cid> 
16741 
 
>  <dipole> 
4.18 
 
>  <excitation_energy_1> 
4.629 
 
>  <excitation_energy_2> 
5.095 
 
>  <excitation_energy_3> 
5.238 
 
>  <excitation_energy_4> 
5.528 
 
>  <homo_energy> 
-6.588 
 
>  <homo_lumo_gap> 
5.94 
 
>  <logP> 
2.332 
 
>  <lumo_energy> 
-0.648 
 
>  <melting_point> 
55.23 
 
>  <molecular_refractivity> 
50.18 
 
>  <oscillator_strength_1> 
0.0 
 
>  <oscillator_strength_2> 
0.0943 
 
>  <oscillator_strength_3> 
0.0001 
 
>  <oscillator_strength_4> 
0.0019 
 
>  <open_babel_can_smiles> 
S=C=NCCc1ccccc1 
 
>  <mulliken_charges> 
20 
1   -0.128614 
2   -0.12715 
3   -0.127093 
4   -0.180258 
5   -0.180313 
6   -0.365484 
7   -0.14328 
8   0.207161 
9   0.161895 
10   -0.337636 
11   -0.137106 
12   0.134422 
13   0.134972 
14   0.134974 
15   0.128943 
16   0.128988 
17   0.166537 
18   0.166586 
19   0.18119 
20   0.181265 
 
>  <lowdin_charges> 
20 
1   -0.153325 
2   -0.152675 
3   -0.152629 
4   -0.166271 
5   -0.166298 
6   -0.276445 
7   -0.172397 
8   -0.05244 
9   -0.006819 
10   -0.098957 
11   -0.053686 
12   0.159214 
13   0.160431 
14   0.160404 
15   0.156868 
16   0.156929 
17   0.161593 
18   0.161678 
19   0.167417 
20   0.167406 
 
$$$$ 
 
