PCCDB-ID:  8917 
public computational chemistry database (PCCDB) project, http://pccdb.org 
 
 33 32  0  0  0  0  0  0  0  0999 V2000 
    3.5205    4.7472   -0.3074 C   0  0  0  0  0  0  0  0  0  0  0  0 
    2.7784    4.0042   -1.4240 C   0  0  0  0  0  0  0  0  0  0  0  0 
    2.6866    2.4816   -1.2256 C   0  0  0  0  0  0  0  0  0  0  0  0 
    4.0037    1.6817   -1.1778 C   0  0  0  0  0  0  0  0  0  0  0  0 
    4.8256    1.6293   -2.4849 C   0  0  0  0  0  0  0  0  0  0  0  0 
    5.8322    2.7749   -2.6837 C   0  0  0  0  0  0  0  0  0  0  0  0 
    6.7459    2.6043   -3.9116 C   0  0  0  0  0  0  0  0  0  0  0  0 
    6.0476    2.6039   -5.2841 C   0  0  0  0  0  0  0  0  0  0  0  0 
    5.3601    3.9272   -5.6424 C   0  0  0  0  0  0  0  0  0  0  0  0 
    4.6657    3.9344   -7.0090 C   0  0  0  0  0  0  0  0  0  0  0  0 
    5.7798    3.8609   -8.4809 S   0  0  0  0  0  0  0  0  0  0  0  0 
    3.4901    5.8311   -0.4670 H   0  0  0  0  0  0  0  0  0  0  0  0 
    4.5742    4.4527   -0.2492 H   0  0  0  0  0  0  0  0  0  0  0  0 
    3.0661    4.5425    0.6703 H   0  0  0  0  0  0  0  0  0  0  0  0 
    3.2457    4.2301   -2.3914 H   0  0  0  0  0  0  0  0  0  0  0  0 
    1.7549    4.3982   -1.4911 H   0  0  0  0  0  0  0  0  0  0  0  0 
    2.0600    2.0625   -2.0264 H   0  0  0  0  0  0  0  0  0  0  0  0 
    2.1421    2.2919   -0.2889 H   0  0  0  0  0  0  0  0  0  0  0  0 
    3.7365    0.6525   -0.9030 H   0  0  0  0  0  0  0  0  0  0  0  0 
    4.6409    2.0463   -0.3598 H   0  0  0  0  0  0  0  0  0  0  0  0 
    4.1349    1.5771   -3.3386 H   0  0  0  0  0  0  0  0  0  0  0  0 
    5.3905    0.6860   -2.5026 H   0  0  0  0  0  0  0  0  0  0  0  0 
    6.4707    2.8335   -1.7908 H   0  0  0  0  0  0  0  0  0  0  0  0 
    5.3121    3.7384   -2.7407 H   0  0  0  0  0  0  0  0  0  0  0  0 
    7.3033    1.6627   -3.8062 H   0  0  0  0  0  0  0  0  0  0  0  0 
    7.4990    3.4050   -3.9041 H   0  0  0  0  0  0  0  0  0  0  0  0 
    5.3124    1.7877   -5.3312 H   0  0  0  0  0  0  0  0  0  0  0  0 
    6.8035    2.3779   -6.0474 H   0  0  0  0  0  0  0  0  0  0  0  0 
    6.0912    4.7454   -5.6054 H   0  0  0  0  0  0  0  0  0  0  0  0 
    4.5907    4.1587   -4.8918 H   0  0  0  0  0  0  0  0  0  0  0  0 
    4.1194    4.8726   -7.1486 H   0  0  0  0  0  0  0  0  0  0  0  0 
    3.9336    3.1232   -7.0838 H   0  0  0  0  0  0  0  0  0  0  0  0 
    6.1806    2.5799   -8.3369 H   0  0  0  0  0  0  0  0  0  0  0  0 
  1 13  1  0  0  0  0 
  1 14  1  0  0  0  0 
  2  3  1  0  0  0  0 
  2  1  1  0  0  0  0 
  3  4  1  0  0  0  0 
  3 18  1  0  0  0  0 
  4 19  1  0  0  0  0 
  4 20  1  0  0  0  0 
  5  4  1  0  0  0  0 
  6  5  1  0  0  0  0 
  6 23  1  0  0  0  0 
  7 26  1  0  0  0  0 
  7 25  1  0  0  0  0 
  7  6  1  0  0  0  0 
  8  7  1  0  0  0  0 
  9 29  1  0  0  0  0 
  9  8  1  0  0  0  0 
  9 30  1  0  0  0  0 
 10  9  1  0  0  0  0 
 11 33  1  0  0  0  0 
 11 10  1  0  0  0  0 
 12  1  1  0  0  0  0 
 15  2  1  0  0  0  0 
 16  2  1  0  0  0  0 
 17  3  1  0  0  0  0 
 21  5  1  0  0  0  0 
 22  5  1  0  0  0  0 
 24  6  1  0  0  0  0 
 27  8  1  0  0  0  0 
 28  8  1  0  0  0  0 
 31 10  1  0  0  0  0 
 32 10  1  0  0  0  0 
M  END 
>  <HBA> 
1 
 
>  <HBD> 
1 
 
>  <TPSA> 
38.8 
 
>  <cid> 
8917 
 
>  <dipole> 
1.97 
 
>  <excitation_energy_1> 
5.288 
 
>  <excitation_energy_2> 
5.769 
 
>  <excitation_energy_3> 
6.069 
 
>  <excitation_energy_4> 
6.293 
 
>  <homo_energy> 
-6.373 
 
>  <homo_lumo_gap> 
7.217 
 
>  <logP> 
4.057 
 
>  <lumo_energy> 
0.844 
 
>  <melting_point> 
-8.96 
 
>  <molecular_refractivity> 
58.11 
 
>  <oscillator_strength_1> 
0.0155 
 
>  <oscillator_strength_2> 
0.0208 
 
>  <oscillator_strength_3> 
0.0231 
 
>  <oscillator_strength_4> 
0.0088 
 
>  <open_babel_can_smiles> 
CCCCCCCCCCS 
 
>  <mulliken_charges> 
33 
1   -0.445285 
2   -0.251543 
3   -0.251788 
4   -0.261054 
5   -0.254413 
6   -0.264079 
7   -0.260017 
8   -0.258446 
9   -0.246111 
10   -0.416502 
11   -0.089712 
12   0.141591 
13   0.148055 
14   0.140935 
15   0.134119 
16   0.130512 
17   0.125592 
18   0.126942 
19   0.129566 
20   0.131792 
21   0.128753 
22   0.127705 
23   0.129624 
24   0.141718 
25   0.128934 
26   0.131215 
27   0.130953 
28   0.13273 
29   0.149957 
30   0.14246 
31   0.178136 
32   0.173363 
33   0.094295 
 
>  <lowdin_charges> 
33 
1   -0.444937 
2   -0.275966 
3   -0.277292 
4   -0.27985 
5   -0.279706 
6   -0.282309 
7   -0.275921 
8   -0.28352 
9   -0.28283 
10   -0.36984 
11   -0.09327 
12   0.147882 
13   0.146152 
14   0.146097 
15   0.136711 
16   0.14099 
17   0.139581 
18   0.139717 
19   0.143283 
20   0.140752 
21   0.137994 
22   0.140385 
23   0.141451 
24   0.141227 
25   0.141098 
26   0.142964 
27   0.138575 
28   0.145284 
29   0.150782 
30   0.146384 
31   0.168723 
32   0.158979 
33   0.110431 
 
$$$$ 
 
