PCCDB-ID:  22860 
public computational chemistry database (PCCDB) project, http://pccdb.org 
 
 28 29  0  0  0  0  0  0  0  0999 V2000 
   -0.4665   -4.3204    2.5597 C   0  0  0  0  0  0  0  0  0  0  0  0 
   -0.5394   -3.0014    3.0086 C   0  0  0  0  0  0  0  0  0  0  0  0 
    0.2247   -4.6115    1.3812 C   0  0  0  0  0  0  0  0  0  0  0  0 
    0.0744   -1.9807    2.2803 C   0  0  0  0  0  0  0  0  0  0  0  0 
    0.8456   -3.5923    0.6599 C   0  0  0  0  0  0  0  0  0  0  0  0 
    2.6161   -0.0579   -4.1907 C   0  0  0  0  0  0  0  0  0  0  0  0 
    3.4084    1.3865   -2.4394 C   0  0  0  0  0  0  0  0  0  0  0  0 
    1.9813   -0.8550   -3.2476 C   0  0  0  0  0  0  0  0  0  0  0  0 
    2.7687    0.5899   -1.4851 C   0  0  0  0  0  0  0  0  0  0  0  0 
    1.4889   -1.1609    0.3617 C   0  0  0  0  0  0  0  0  0  0  0  0 
    0.7756   -2.2664    1.1042 C   0  0  0  0  0  0  0  0  0  0  0  0 
    3.3468    1.0796   -3.8033 C   0  0  0  0  0  0  0  0  0  0  0  0 
    2.0519   -0.5413   -1.8840 C   0  0  0  0  0  0  0  0  0  0  0  0 
    3.9350    1.9191   -4.7670 N   0  0  0  0  0  0  0  0  0  0  0  0 
    1.3885   -1.3957   -1.0368 O   0  0  0  0  0  0  0  0  0  0  0  0 
   -0.9498   -5.1159    3.1206 H   0  0  0  0  0  0  0  0  0  0  0  0 
   -1.0827   -2.7632    3.9193 H   0  0  0  0  0  0  0  0  0  0  0  0 
    0.2800   -5.6360    1.0222 H   0  0  0  0  0  0  0  0  0  0  0  0 
    0.0036   -0.9521    2.6279 H   0  0  0  0  0  0  0  0  0  0  0  0 
    1.3755   -3.8154   -0.2607 H   0  0  0  0  0  0  0  0  0  0  0  0 
    2.5440   -0.3155   -5.2452 H   0  0  0  0  0  0  0  0  0  0  0  0 
    3.9592    2.2655   -2.1114 H   0  0  0  0  0  0  0  0  0  0  0  0 
    1.4218   -1.7350   -3.5500 H   0  0  0  0  0  0  0  0  0  0  0  0 
    2.8405    0.8681   -0.4397 H   0  0  0  0  0  0  0  0  0  0  0  0 
    2.5518   -1.1289    0.6515 H   0  0  0  0  0  0  0  0  0  0  0  0 
    1.0513   -0.1851    0.6196 H   0  0  0  0  0  0  0  0  0  0  0  0 
    4.1928    1.4406   -5.6227 H   0  0  0  0  0  0  0  0  0  0  0  0 
    4.7211    2.4547   -4.4168 H   0  0  0  0  0  0  0  0  0  0  0  0 
  1  2  1  0  0  0  0 
  1 16  1  0  0  0  0 
  2 17  1  0  0  0  0 
  3  1  2  0  0  0  0 
  4 19  1  0  0  0  0 
  4  2  2  0  0  0  0 
  5 11  2  0  0  0  0 
  5  3  1  0  0  0  0 
  6 12  2  0  0  0  0 
  6  8  1  0  0  0  0 
  7 22  1  0  0  0  0 
  7  9  2  0  0  0  0 
  8 13  2  0  0  0  0 
  9 24  1  0  0  0  0 
 10 26  1  0  0  0  0 
 10 25  1  0  0  0  0 
 10 11  1  0  0  0  0 
 11  4  1  0  0  0  0 
 12  7  1  0  0  0  0 
 13  9  1  0  0  0  0 
 13 15  1  0  0  0  0 
 14 28  1  0  0  0  0 
 14 12  1  0  0  0  0 
 15 10  1  0  0  0  0 
 18  3  1  0  0  0  0 
 20  5  1  0  0  0  0 
 21  6  1  0  0  0  0 
 23  8  1  0  0  0  0 
 27 14  1  0  0  0  0 
M  END 
>  <HBA> 
2 
 
>  <HBD> 
1 
 
>  <TPSA> 
35.25 
 
>  <cid> 
22860 
 
>  <dipole> 
1.89 
 
>  <excitation_energy_1> 
4.279 
 
>  <excitation_energy_2> 
4.41 
 
>  <excitation_energy_3> 
4.443 
 
>  <excitation_energy_4> 
4.475 
 
>  <homo_energy> 
-5.001 
 
>  <homo_lumo_gap> 
4.95 
 
>  <logP> 
3.429 
 
>  <lumo_energy> 
-0.052 
 
>  <melting_point> 
88.97 
 
>  <molecular_refractivity> 
61.83 
 
>  <oscillator_strength_1> 
0.03 
 
>  <oscillator_strength_2> 
0.0125 
 
>  <oscillator_strength_3> 
0.009 
 
>  <oscillator_strength_4> 
0.0057 
 
>  <open_babel_can_smiles> 
Nc1ccc(cc1)OCc1ccccc1 
 
>  <mulliken_charges> 
28 
1   -0.126853 
2   -0.129438 
3   -0.13302 
4   -0.180043 
5   -0.158824 
6   -0.173523 
7   -0.184609 
8   -0.184021 
9   -0.197051 
10   -0.101305 
11   0.130756 
12   0.300026 
13   0.374796 
14   -0.786354 
15   -0.529625 
16   0.128658 
17   0.129331 
18   0.13008 
19   0.12325 
20   0.143454 
21   0.118837 
22   0.116543 
23   0.135372 
24   0.131521 
25   0.15016 
26   0.14262 
27   0.3148 
28   0.314461 
 
>  <lowdin_charges> 
28 
1   -0.159498 
2   -0.15464 
3   -0.152839 
4   -0.164737 
5   -0.153528 
6   -0.185777 
7   -0.192026 
8   -0.170982 
9   -0.201913 
10   -0.119487 
11   -0.013817 
12   0.041999 
13   0.079508 
14   -0.497132 
15   -0.206869 
16   0.158605 
17   0.157575 
18   0.156711 
19   0.153452 
20   0.16534 
21   0.152477 
22   0.152836 
23   0.165686 
24   0.159831 
25   0.143228 
26   0.141629 
27   0.272299 
28   0.272069 
 
$$$$ 
 
