PCCDB-ID:  27674 
public computational chemistry database (PCCDB) project, http://pccdb.org 
 
 23 24  0  0  0  0  0  0  0  0999 V2000 
    1.8435   -0.4666   -1.1877 C   0  0  0  0  0  0  0  0  0  0  0  0 
    4.1655   -2.3299    2.0032 C   0  0  0  0  0  0  0  0  0  0  0  0 
    3.4400   -1.7084    0.9906 C   0  0  0  0  0  0  0  0  0  0  0  0 
    4.6812   -1.5963    3.0769 C   0  0  0  0  0  0  0  0  0  0  0  0 
    3.6423    1.8970    2.4281 C   0  0  0  0  0  0  0  0  0  0  0  0 
    4.1104    1.9400    3.9040 C   0  0  0  0  0  0  0  0  0  0  0  0 
    2.4434    0.3707   -0.0665 C   0  0  0  0  0  0  0  0  0  0  0  0 
    3.2048   -0.3158    1.0210 C   0  0  0  0  0  0  0  0  0  0  0  0 
    3.7014    0.4184    2.1046 C   0  0  0  0  0  0  0  0  0  0  0  0 
    4.4422   -0.2217    3.1146 C   0  0  0  0  0  0  0  0  0  0  0  0 
    4.8975    0.7020    4.0582 N   0  0  0  0  0  0  0  0  0  0  0  0 
    2.2989    1.5866   -0.0718 O   0  0  0  0  0  0  0  0  0  0  0  0 
    1.1510   -1.2205   -0.7956 H   0  0  0  0  0  0  0  0  0  0  0  0 
    2.6243   -0.9987   -1.7440 H   0  0  0  0  0  0  0  0  0  0  0  0 
    1.3093    0.1991   -1.8677 H   0  0  0  0  0  0  0  0  0  0  0  0 
    4.3358   -3.4024    1.9610 H   0  0  0  0  0  0  0  0  0  0  0  0 
    3.0581   -2.3066    0.1709 H   0  0  0  0  0  0  0  0  0  0  0  0 
    5.2533   -2.0863    3.8605 H   0  0  0  0  0  0  0  0  0  0  0  0 
    4.3252    2.4556    1.7750 H   0  0  0  0  0  0  0  0  0  0  0  0 
    2.6527    2.3333    2.2844 H   0  0  0  0  0  0  0  0  0  0  0  0 
    3.2402    1.9449    4.5798 H   0  0  0  0  0  0  0  0  0  0  0  0 
    4.7214    2.8186    4.1317 H   0  0  0  0  0  0  0  0  0  0  0  0 
    5.0203    0.3622    5.0047 H   0  0  0  0  0  0  0  0  0  0  0  0 
  1 13  1  0  0  0  0 
  1  7  1  0  0  0  0 
  2  4  2  0  0  0  0 
  3  8  2  0  0  0  0 
  3  2  1  0  0  0  0 
  4 10  1  0  0  0  0 
  4 18  1  0  0  0  0 
  5  6  1  0  0  0  0 
  6 11  1  0  0  0  0 
  6 22  1  0  0  0  0 
  6 21  1  0  0  0  0 
  7  8  1  0  0  0  0 
  8  9  1  0  0  0  0 
  9  5  1  0  0  0  0 
  9 10  2  0  0  0  0 
 10 11  1  0  0  0  0 
 11 23  1  0  0  0  0 
 12  7  2  0  0  0  0 
 14  1  1  0  0  0  0 
 15  1  1  0  0  0  0 
 16  2  1  0  0  0  0 
 17  3  1  0  0  0  0 
 19  5  1  0  0  0  0 
 20  5  1  0  0  0  0 
M  END 
>  <HBA> 
2 
 
>  <HBD> 
1 
 
>  <TPSA> 
29.1 
 
>  <cid> 
27674 
 
>  <dipole> 
2.67 
 
>  <excitation_energy_1> 
3.429 
 
>  <excitation_energy_2> 
3.732 
 
>  <excitation_energy_3> 
4.732 
 
>  <excitation_energy_4> 
4.841 
 
>  <homo_energy> 
-5.347 
 
>  <homo_lumo_gap> 
4.079 
 
>  <logP> 
1.995 
 
>  <lumo_energy> 
-1.268 
 
>  <melting_point> 
101.19 
 
>  <molecular_refractivity> 
51.73 
 
>  <oscillator_strength_1> 
0.0501 
 
>  <oscillator_strength_2> 
0.0002 
 
>  <oscillator_strength_3> 
0.0027 
 
>  <oscillator_strength_4> 
0.0201 
 
>  <open_babel_can_smiles> 
CC(=O)c1cccc2c1CCN2 
 
>  <mulliken_charges> 
23 
1   -0.539787 
2   -0.140677 
3   -0.20049 
4   -0.178481 
5   -0.326627 
6   -0.140502 
7   0.401725 
8   0.025427 
9   0.059078 
10   0.310059 
11   -0.64989 
12   -0.464079 
13   0.169502 
14   0.170955 
15   0.177594 
16   0.128701 
17   0.124635 
18   0.125629 
19   0.170555 
20   0.17644 
21   0.138012 
22   0.150445 
23   0.311777 
 
>  <lowdin_charges> 
23 
1   -0.478559 
2   -0.148751 
3   -0.183888 
4   -0.188096 
5   -0.276676 
6   -0.196331 
7   0.161637 
8   -0.052409 
9   -0.008533 
10   0.047231 
11   -0.308621 
12   -0.246777 
13   0.169673 
14   0.170907 
15   0.17415 
16   0.156183 
17   0.160072 
18   0.158823 
19   0.166228 
20   0.170696 
21   0.133019 
22   0.149819 
23   0.270204 
 
$$$$ 
 
