PCCDB-ID:  39404 
public computational chemistry database (PCCDB) project, http://pccdb.org 
 
 29 29  0  0  0  0  0  0  0  0999 V2000 
   -5.7076   -2.4490    1.6328 C   0  0  0  0  0  0  0  0  0  0  0  0 
   -4.3958   -2.7283    1.2601 C   0  0  0  0  0  0  0  0  0  0  0  0 
   -6.1340   -1.1301    1.7947 C   0  0  0  0  0  0  0  0  0  0  0  0 
   -2.0749   -1.9329    0.6338 C   0  0  0  0  0  0  0  0  0  0  0  0 
   -1.5211   -3.1074    0.2734 C   0  0  0  0  0  0  0  0  0  0  0  0 
   -0.4293   -5.1456   -1.5452 C   0  0  0  0  0  0  0  0  0  0  0  0 
    0.3096   -5.5428   -2.8305 C   0  0  0  0  0  0  0  0  0  0  0  0 
   -3.8954   -0.3685    1.2031 C   0  0  0  0  0  0  0  0  0  0  0  0 
   -3.4665   -1.6937    1.0319 C   0  0  0  0  0  0  0  0  0  0  0  0 
   -5.2103   -0.1122    1.5758 C   0  0  0  0  0  0  0  0  0  0  0  0 
   -0.1019   -3.2617   -0.1115 C   0  0  0  0  0  0  0  0  0  0  0  0 
    0.3942   -4.1630   -0.8580 N   0  0  0  0  0  0  0  0  0  0  0  0 
   -5.6375    1.2891    1.7477 N   0  0  0  0  0  0  0  0  0  0  0  0 
    1.6238   -5.9686   -2.5394 O   0  0  0  0  0  0  0  0  0  0  0  0 
    0.7690   -2.3223    0.3727 O   0  0  0  0  0  0  0  0  0  0  0  0 
   -6.8063    1.4912    2.0719 O   0  0  0  0  0  0  0  0  0  0  0  0 
   -4.7987    2.1682    1.5568 O   0  0  0  0  0  0  0  0  0  0  0  0 
   -6.4050   -3.2631    1.8044 H   0  0  0  0  0  0  0  0  0  0  0  0 
   -4.0875   -3.7637    1.1538 H   0  0  0  0  0  0  0  0  0  0  0  0 
   -7.1474   -0.8839    2.0860 H   0  0  0  0  0  0  0  0  0  0  0  0 
   -1.4553   -1.0371    0.6002 H   0  0  0  0  0  0  0  0  0  0  0  0 
   -2.1221   -4.0102    0.2260 H   0  0  0  0  0  0  0  0  0  0  0  0 
   -0.5175   -6.0403   -0.9115 H   0  0  0  0  0  0  0  0  0  0  0  0 
   -1.4432   -4.7934   -1.7887 H   0  0  0  0  0  0  0  0  0  0  0  0 
    0.3049   -4.6862   -3.5256 H   0  0  0  0  0  0  0  0  0  0  0  0 
   -0.2049   -6.3767   -3.3205 H   0  0  0  0  0  0  0  0  0  0  0  0 
   -3.2206    0.4647    1.0447 H   0  0  0  0  0  0  0  0  0  0  0  0 
    1.9749   -5.2850   -1.9392 H   0  0  0  0  0  0  0  0  0  0  0  0 
    0.3858   -1.9226    1.1691 H   0  0  0  0  0  0  0  0  0  0  0  0 
  1  3  1  0  0  0  0 
  1 18  1  0  0  0  0 
  2  1  2  0  0  0  0 
  3 20  1  0  0  0  0 
  4  9  1  0  0  0  0 
  5  4  2  0  0  0  0 
  6 23  1  0  0  0  0 
  6 12  1  0  0  0  0 
  7 14  1  0  0  0  0 
  7  6  1  0  0  0  0 
  8 10  1  0  0  0  0 
  9  8  2  0  0  0  0 
  9  2  1  0  0  0  0 
 10 13  1  0  0  0  0 
 10  3  2  0  0  0  0 
 11  5  1  0  0  0  0 
 11 15  1  0  0  0  0 
 12 11  2  0  0  0  0 
 13 16  2  0  0  0  0 
 14 28  1  0  0  0  0 
 15 29  1  0  0  0  0 
 17 13  2  0  0  0  0 
 19  2  1  0  0  0  0 
 21  4  1  0  0  0  0 
 22  5  1  0  0  0  0 
 24  6  1  0  0  0  0 
 25  7  1  0  0  0  0 
 26  7  1  0  0  0  0 
 27  8  1  0  0  0  0 
M  END 
>  <HBA> 
3 
 
>  <HBD> 
2 
 
>  <TPSA> 
95.15 
 
>  <cid> 
39404 
 
>  <dipole> 
4.24 
 
>  <excitation_energy_1> 
3.397 
 
>  <excitation_energy_2> 
3.608 
 
>  <excitation_energy_3> 
3.737 
 
>  <excitation_energy_4> 
3.91 
 
>  <homo_energy> 
-6.721 
 
>  <homo_lumo_gap> 
3.867 
 
>  <logP> 
1.631 
 
>  <lumo_energy> 
-2.854 
 
>  <melting_point> 
131.83 
 
>  <molecular_refractivity> 
63.94 
 
>  <oscillator_strength_1> 
0.0326 
 
>  <oscillator_strength_2> 
0.0043 
 
>  <oscillator_strength_3> 
0.0001 
 
>  <oscillator_strength_4> 
0.0346 
 
>  <open_babel_can_smiles> 
OCC/N=C(\C=C\c1cccc(c1)N(=O)=O)/O 
 
>  <mulliken_charges> 
29 
1   -0.140764 
2   -0.155143 
3   -0.144112 
4   -0.183335 
5   -0.189061 
6   -0.163679 
7   -0.012085 
8   -0.218652 
9   0.15672 
10   0.272752 
11   0.485614 
12   -0.447753 
13   0.385233 
14   -0.626349 
15   -0.585817 
16   -0.387861 
17   -0.390569 
18   0.158228 
19   0.150396 
20   0.190545 
21   0.150756 
22   0.15934 
23   0.154807 
24   0.123825 
25   0.121462 
26   0.135975 
27   0.187644 
28   0.407465 
29   0.404416 
 
>  <lowdin_charges> 
29 
1   -0.143487 
2   -0.128219 
3   -0.129633 
4   -0.142979 
5   -0.191834 
6   -0.223646 
7   -0.136474 
8   -0.138977 
9   0.000148 
10   0.006561 
11   0.126931 
12   -0.200323 
13   0.308407 
14   -0.471862 
15   -0.367691 
16   -0.238153 
17   -0.242046 
18   0.173414 
19   0.167037 
20   0.191036 
21   0.165067 
22   0.170552 
23   0.151615 
24   0.132115 
25   0.126499 
26   0.145011 
27   0.189849 
28   0.345271 
29   0.35581 
 
$$$$ 
 
