PCCDB-ID:  68256 
public computational chemistry database (PCCDB) project, http://pccdb.org 
 
 19 19  0  0  0  0  0  0  0  0999 V2000 
    0.8960   -0.1758   -0.1217 C   0  0  0  0  0  0  0  0  0  0  0  0 
    4.5133   -1.4069   -0.0870 C   0  0  0  0  0  0  0  0  0  0  0  0 
    5.2252   -0.2083   -0.0851 C   0  0  0  0  0  0  0  0  0  0  0  0 
    3.1178   -1.3739   -0.0720 C   0  0  0  0  0  0  0  0  0  0  0  0 
    4.5373    1.0027   -0.0419 C   0  0  0  0  0  0  0  0  0  0  0  0 
    2.4045   -0.1711   -0.0533 C   0  0  0  0  0  0  0  0  0  0  0  0 
    3.1350    1.0390   -0.0206 C   0  0  0  0  0  0  0  0  0  0  0  0 
    1.6414    2.6217    1.0954 N   0  0  0  0  0  0  0  0  0  0  0  0 
    2.4653    2.2898   -0.0304 N   0  0  0  0  0  0  0  0  0  0  0  0 
    0.5276   -1.1419   -0.4808 H   0  0  0  0  0  0  0  0  0  0  0  0 
    0.5382    0.6033   -0.8053 H   0  0  0  0  0  0  0  0  0  0  0  0 
    0.4284    0.0051    0.8554 H   0  0  0  0  0  0  0  0  0  0  0  0 
    5.0354   -2.3593   -0.1104 H   0  0  0  0  0  0  0  0  0  0  0  0 
    6.3118   -0.2119   -0.1017 H   0  0  0  0  0  0  0  0  0  0  0  0 
    2.5602   -2.3077   -0.1014 H   0  0  0  0  0  0  0  0  0  0  0  0 
    5.0890    1.9407   -0.0180 H   0  0  0  0  0  0  0  0  0  0  0  0 
    1.9648    2.1177    1.9245 H   0  0  0  0  0  0  0  0  0  0  0  0 
    0.6969    2.3004    0.8987 H   0  0  0  0  0  0  0  0  0  0  0  0 
    3.1261    3.0514   -0.1475 H   0  0  0  0  0  0  0  0  0  0  0  0 
  1  6  1  0  0  0  0 
  1 12  1  0  0  0  0 
  2  3  2  0  0  0  0 
  2  4  1  0  0  0  0 
  3  5  1  0  0  0  0 
  4  6  2  0  0  0  0 
  5  7  2  0  0  0  0 
  5 16  1  0  0  0  0 
  6  7  1  0  0  0  0 
  8 17  1  0  0  0  0 
  9  7  1  0  0  0  0 
  9  8  1  0  0  0  0 
 10  1  1  0  0  0  0 
 11  1  1  0  0  0  0 
 13  2  1  0  0  0  0 
 14  3  1  0  0  0  0 
 15  4  1  0  0  0  0 
 18  8  1  0  0  0  0 
 19  9  1  0  0  0  0 
M  END 
>  <HBA> 
2 
 
>  <HBD> 
2 
 
>  <TPSA> 
38.05 
 
>  <cid> 
68256 
 
>  <dipole> 
1.04 
 
>  <excitation_energy_1> 
4.771 
 
>  <excitation_energy_2> 
5.003 
 
>  <excitation_energy_3> 
5.376 
 
>  <excitation_energy_4> 
5.566 
 
>  <homo_energy> 
-5.641 
 
>  <homo_lumo_gap> 
5.733 
 
>  <logP> 
2.054 
 
>  <lumo_energy> 
0.093 
 
>  <melting_point> 
97.62 
 
>  <molecular_refractivity> 
38.61 
 
>  <oscillator_strength_1> 
0.0235 
 
>  <oscillator_strength_2> 
0.1253 
 
>  <oscillator_strength_3> 
0.0316 
 
>  <oscillator_strength_4> 
0.0074 
 
>  <open_babel_can_smiles> 
NNc1ccccc1C 
 
>  <mulliken_charges> 
19 
1   -0.544479 
2   -0.125799 
3   -0.13804 
4   -0.199325 
5   -0.179973 
6   0.175812 
7   0.222659 
8   -0.594072 
9   -0.525734 
10   0.155573 
11   0.173992 
12   0.147169 
13   0.124692 
14   0.127339 
15   0.120893 
16   0.120163 
17   0.298405 
18   0.319296 
19   0.321429 
 
>  <lowdin_charges> 
19 
1   -0.446316 
2   -0.171741 
3   -0.152893 
4   -0.162159 
5   -0.191227 
6   -0.020018 
7   0.02069 
8   -0.474932 
9   -0.268257 
10   0.157882 
11   0.165823 
12   0.150459 
13   0.15657 
14   0.154935 
15   0.15403 
16   0.153026 
17   0.247785 
18   0.258443 
19   0.267901 
 
$$$$ 
 
