PCCDB-ID:  8440 
public computational chemistry database (PCCDB) project, http://pccdb.org 
 
 23 24  0  0  0  0  0  0  0  0999 V2000 
    1.6103   -1.4139   -1.8351 C   0  0  0  0  0  0  0  0  0  0  0  0 
    6.7322   -0.9902   -2.8962 C   0  0  0  0  0  0  0  0  0  0  0  0 
    7.4019   -0.6584   -4.0888 C   0  0  0  0  0  0  0  0  0  0  0  0 
    5.1230    0.8303   -3.2124 C   0  0  0  0  0  0  0  0  0  0  0  0 
    6.4970    2.0221   -6.3132 C   0  0  0  0  0  0  0  0  0  0  0  0 
    5.6238   -0.2613   -2.4824 C   0  0  0  0  0  0  0  0  0  0  0  0 
    6.9056    0.4080   -4.8096 C   0  0  0  0  0  0  0  0  0  0  0  0 
    5.7935    1.1293   -4.3795 C   0  0  0  0  0  0  0  0  0  0  0  0 
    3.7886   -0.9441   -1.1272 C   0  0  0  0  0  0  0  0  0  0  0  0 
    2.9797   -1.0058   -2.0995 N   0  0  0  0  0  0  0  0  0  0  0  0 
    3.5720   -1.2027    0.1872 O   0  0  0  0  0  0  0  0  0  0  0  0 
    7.3682    0.9313   -5.9951 O   0  0  0  0  0  0  0  0  0  0  0  0 
    5.5158    2.1334   -5.2750 O   0  0  0  0  0  0  0  0  0  0  0  0 
    5.0890   -0.5909   -1.2357 O   0  0  0  0  0  0  0  0  0  0  0  0 
    1.0316   -1.3413   -2.7597 H   0  0  0  0  0  0  0  0  0  0  0  0 
    1.1032   -0.7764   -1.0898 H   0  0  0  0  0  0  0  0  0  0  0  0 
    1.5401   -2.4591   -1.4917 H   0  0  0  0  0  0  0  0  0  0  0  0 
    7.0753   -1.8152   -2.2818 H   0  0  0  0  0  0  0  0  0  0  0  0 
    8.2688   -1.2156   -4.4258 H   0  0  0  0  0  0  0  0  0  0  0  0 
    4.2526    1.3830   -2.8856 H   0  0  0  0  0  0  0  0  0  0  0  0 
    5.9959    1.8233   -7.2685 H   0  0  0  0  0  0  0  0  0  0  0  0 
    7.0780    2.9508   -6.3657 H   0  0  0  0  0  0  0  0  0  0  0  0 
    2.6413   -1.4534    0.2972 H   0  0  0  0  0  0  0  0  0  0  0  0 
  1 17  1  0  0  0  0 
  1 16  1  0  0  0  0 
  2  6  1  0  0  0  0 
  2 18  1  0  0  0  0 
  3  2  2  0  0  0  0 
  4 20  1  0  0  0  0 
  4  6  2  0  0  0  0 
  5 12  1  0  0  0  0 
  5 13  1  0  0  0  0 
  6 14  1  0  0  0  0 
  7  8  2  0  0  0  0 
  7  3  1  0  0  0  0 
  8  4  1  0  0  0  0 
  9 11  1  0  0  0  0 
 10  1  1  0  0  0  0 
 10  9  2  0  0  0  0 
 11 23  1  0  0  0  0 
 12  7  1  0  0  0  0 
 13  8  1  0  0  0  0 
 14  9  1  0  0  0  0 
 15  1  1  0  0  0  0 
 19  3  1  0  0  0  0 
 21  5  1  0  0  0  0 
 22  5  1  0  0  0  0 
M  END 
>  <HBA> 
5 
 
>  <HBD> 
1 
 
>  <TPSA> 
56.79 
 
>  <cid> 
8440 
 
>  <dipole> 
1.68 
 
>  <excitation_energy_1> 
4.722 
 
>  <excitation_energy_2> 
4.98 
 
>  <excitation_energy_3> 
5.263 
 
>  <excitation_energy_4> 
5.286 
 
>  <homo_energy> 
-5.491 
 
>  <homo_lumo_gap> 
5.551 
 
>  <logP> 
1.524 
 
>  <lumo_energy> 
0.06 
 
>  <melting_point> 
102.12 
 
>  <molecular_refractivity> 
47.19 
 
>  <oscillator_strength_1> 
0.0761 
 
>  <oscillator_strength_2> 
0.0038 
 
>  <oscillator_strength_3> 
0.0113 
 
>  <oscillator_strength_4> 
0.0651 
 
>  <open_babel_can_smiles> 
C/N=C(/Oc1ccc2c(c1)OCO2)\O 
 
>  <mulliken_charges> 
23 
1   -0.359265 
2   -0.178878 
3   -0.192224 
4   -0.188698 
5   0.195818 
6   0.350122 
7   0.336746 
8   0.324459 
9   0.664098 
10   -0.428197 
11   -0.587874 
12   -0.534816 
13   -0.534293 
14   -0.52023 
15   0.175869 
16   0.13614 
17   0.147438 
18   0.143377 
19   0.147583 
20   0.158705 
21   0.159452 
22   0.159364 
23   0.425305 
 
>  <lowdin_charges> 
23 
1   -0.365782 
2   -0.180647 
3   -0.179313 
4   -0.185721 
5   0.019805 
6   0.105791 
7   0.067239 
8   0.076234 
9   0.192646 
10   -0.264506 
11   -0.356696 
12   -0.208146 
13   -0.205019 
14   -0.144038 
15   0.164969 
16   0.135026 
17   0.139447 
18   0.171872 
19   0.172564 
20   0.183112 
21   0.147311 
22   0.147837 
23   0.366016 
 
$$$$ 
 
