PCCDB-ID:  41458 
public computational chemistry database (PCCDB) project, http://pccdb.org 
 
 35 37  0  0  1  0  0  0  0  0999 V2000 
    1.0753   -0.0746   -0.6317 C   0  0  0  0  0  0  0  0  0  0  0  0 
    3.5485   -2.2156    3.0857 C   0  0  0  0  0  0  0  0  0  0  0  0 
    3.5849   -3.5179   -2.1070 C   0  0  0  0  0  0  0  0  0  0  0  0 
    4.3710   -2.9113   -3.0895 C   0  0  0  0  0  0  0  0  0  0  0  0 
    4.5467   -1.6895    2.0438 C   0  0  0  0  0  0  0  0  0  0  0  0 
    2.1064   -2.0520    2.5832 C   0  0  0  0  0  0  0  0  0  0  0  0 
    2.9635   -2.7426   -1.1158 C   0  0  0  0  0  0  0  0  0  0  0  0 
    4.5546   -1.5236   -3.1096 C   0  0  0  0  0  0  0  0  0  0  0  0 
    4.1965   -0.2514    1.6240 C   0  0  0  0  0  0  0  0  0  0  0  0 
    1.8496   -0.5976    2.1557 C   0  0  0  0  0  0  0  0  0  0  0  0 
    3.1648   -1.3698   -1.1100 C   0  0  0  0  0  0  0  0  0  0  0  0 
    3.9475   -0.7624   -2.1160 C   0  0  0  0  0  0  0  0  0  0  0  0 
    3.3267    0.9364   -0.9619 C   0  0  0  0  0  0  0  0  0  0  0  0 
    2.5730   -0.2259   -0.2787 C   0  0  1  0  0  0  0  0  0  0  0  0 
    4.0412    0.6507   -1.9892 N   0  0  0  0  0  0  0  0  0  0  0  0 
    2.8025   -0.0634    1.1708 N   0  0  0  0  0  0  0  0  0  0  0  0 
    3.2005    2.1576   -0.4377 O   0  0  0  0  0  0  0  0  0  0  0  0 
    0.9672    0.0172   -1.7157 H   0  0  0  0  0  0  0  0  0  0  0  0 
    0.6477    0.8198   -0.1647 H   0  0  0  0  0  0  0  0  0  0  0  0 
    0.5018   -0.9507   -0.3149 H   0  0  0  0  0  0  0  0  0  0  0  0 
    3.6657   -1.6490    4.0219 H   0  0  0  0  0  0  0  0  0  0  0  0 
    3.7589   -3.2645    3.3269 H   0  0  0  0  0  0  0  0  0  0  0  0 
    3.4478   -4.5957   -2.1115 H   0  0  0  0  0  0  0  0  0  0  0  0 
    4.8427   -3.5242   -3.8532 H   0  0  0  0  0  0  0  0  0  0  0  0 
    4.5443   -2.3406    1.1629 H   0  0  0  0  0  0  0  0  0  0  0  0 
    5.5671   -1.7018    2.4484 H   0  0  0  0  0  0  0  0  0  0  0  0 
    1.3891   -2.3276    3.3676 H   0  0  0  0  0  0  0  0  0  0  0  0 
    1.9249   -2.7275    1.7373 H   0  0  0  0  0  0  0  0  0  0  0  0 
    2.3380   -3.2245   -0.3682 H   0  0  0  0  0  0  0  0  0  0  0  0 
    5.1528   -1.0404   -3.8760 H   0  0  0  0  0  0  0  0  0  0  0  0 
    4.8713    0.0938    0.8345 H   0  0  0  0  0  0  0  0  0  0  0  0 
    4.3465    0.4146    2.4869 H   0  0  0  0  0  0  0  0  0  0  0  0 
    1.9374    0.0411    3.0478 H   0  0  0  0  0  0  0  0  0  0  0  0 
    0.8306   -0.4717    1.7858 H   0  0  0  0  0  0  0  0  0  0  0  0 
    2.8182    1.9937    0.4540 H   0  0  0  0  0  0  0  0  0  0  0  0 
  1 20  1  0  0  0  0 
  1 19  1  0  0  0  0 
  2 22  1  0  0  0  0 
  2 21  1  0  0  0  0 
  3  7  2  0  0  0  0 
  4  3  1  0  0  0  0 
  5 26  1  0  0  0  0 
  5  2  1  0  0  0  0 
  6  2  1  0  0  0  0 
  6 27  1  0  0  0  0 
  7 11  1  0  0  0  0 
  7 29  1  0  0  0  0 
  8  4  2  0  0  0  0 
  8 12  1  0  0  0  0 
  9  5  1  0  0  0  0 
  9 32  1  0  0  0  0 
 10  6  1  0  0  0  0 
 10 33  1  0  0  0  0 
 11 14  1  0  0  0  0 
 12 15  1  0  0  0  0 
 12 11  2  0  0  0  0 
 13 17  1  0  0  0  0 
 13 14  1  0  0  0  0 
 14  1  1  6  0  0  0 
 14 16  1  0  0  0  0 
 15 13  2  0  0  0  0 
 16  9  1  0  0  0  0 
 16 10  1  0  0  0  0 
 17 35  1  0  0  0  0 
 18  1  1  0  0  0  0 
 23  3  1  0  0  0  0 
 24  4  1  0  0  0  0 
 25  5  1  0  0  0  0 
 28  6  1  0  0  0  0 
 30  8  1  0  0  0  0 
 31  9  1  0  0  0  0 
 34 10  1  0  0  0  0 
M  END 
>  <HBA> 
3 
 
>  <HBD> 
1 
 
>  <TPSA> 
32.34 
 
>  <cid> 
41458 
 
>  <dipole> 
4.41 
 
>  <excitation_energy_1> 
4.357 
 
>  <excitation_energy_2> 
4.552 
 
>  <excitation_energy_3> 
4.913 
 
>  <excitation_energy_4> 
5.11 
 
>  <homo_energy> 
-5.725 
 
>  <homo_lumo_gap> 
5.203 
 
>  <logP> 
2.416 
 
>  <lumo_energy> 
-0.522 
 
>  <melting_point> 
114.85 
 
>  <molecular_refractivity> 
75.16 
 
>  <oscillator_strength_1> 
0.0149 
 
>  <oscillator_strength_2> 
0.0208 
 
>  <oscillator_strength_3> 
0.0782 
 
>  <oscillator_strength_4> 
0.0032 
 
>  <open_babel_can_smiles> 
OC1=Nc2c([C@@]1(C)N1CCCCC1)cccc2 
 
>  <mulliken_charges> 
35 
1   -0.463233 
2   -0.263206 
3   -0.138716 
4   -0.135019 
5   -0.269284 
6   -0.269373 
7   -0.218615 
8   -0.190481 
9   -0.155267 
10   -0.146433 
11   0.116943 
12   0.246656 
13   0.539536 
14   0.043267 
15   -0.518188 
16   -0.440611 
17   -0.606368 
18   0.180003 
19   0.151972 
20   0.163363 
21   0.128717 
22   0.138095 
23   0.124504 
24   0.128538 
25   0.157981 
26   0.135751 
27   0.134779 
28   0.141867 
29   0.130338 
30   0.139618 
31   0.169265 
32   0.137785 
33   0.138985 
34   0.149513 
35   0.41732 
 
>  <lowdin_charges> 
35 
1   -0.435636 
2   -0.277269 
3   -0.171481 
4   -0.151884 
5   -0.293227 
6   -0.295402 
7   -0.16694 
8   -0.172132 
9   -0.208279 
10   -0.20611 
11   -0.052294 
12   0.039012 
13   0.116506 
14   0.037581 
15   -0.193083 
16   -0.188344 
17   -0.331953 
18   0.171137 
19   0.153719 
20   0.159461 
21   0.137469 
22   0.145832 
23   0.154085 
24   0.159075 
25   0.154893 
26   0.147735 
27   0.148384 
28   0.141326 
29   0.15406 
30   0.16789 
31   0.162328 
32   0.141263 
33   0.141958 
34   0.152722 
35   0.357597 
 
$$$$ 
 
