PCCDB-ID:  35881 
public computational chemistry database (PCCDB) project, http://pccdb.org 
 
 31 33  0  0  1  0  0  0  0  0999 V2000 
    1.0566   -0.0108   -0.2265 C   0  0  0  0  0  0  0  0  0  0  0  0 
    2.2530   -0.0547   -0.0670 C   0  0  0  0  0  0  0  0  0  0  0  0 
    5.1856    3.5505    1.9333 C   0  0  0  0  0  0  0  0  0  0  0  0 
    3.8366    3.2150    2.0071 C   0  0  0  0  0  0  0  0  0  0  0  0 
    3.7422   -3.5723    1.5869 C   0  0  0  0  0  0  0  0  0  0  0  0 
    6.0634    2.7063    1.2535 C   0  0  0  0  0  0  0  0  0  0  0  0 
    3.3796    2.0496    1.3910 C   0  0  0  0  0  0  0  0  0  0  0  0 
    3.3239   -2.3842    1.0011 C   0  0  0  0  0  0  0  0  0  0  0  0 
    6.6294    0.6096   -0.0162 C   0  0  0  0  0  0  0  0  0  0  0  0 
    6.7976   -0.7052    0.7545 C   0  0  0  0  0  0  0  0  0  0  0  0 
    5.1014   -3.7185    1.8432 C   0  0  0  0  0  0  0  0  0  0  0  0 
    5.6252    1.5283    0.6386 C   0  0  0  0  0  0  0  0  0  0  0  0 
    4.2531    1.1999    0.7014 C   0  0  0  0  0  0  0  0  0  0  0  0 
    4.2414   -1.3737    0.6848 C   0  0  0  0  0  0  0  0  0  0  0  0 
    5.6030   -1.6243    0.9777 C   0  0  0  0  0  0  0  0  0  0  0  0 
    3.7323   -0.0806    0.0060 C   0  0  1  0  0  0  0  0  0  0  0  0 
    5.9978   -2.7793    1.5473 N   0  0  0  0  0  0  0  0  0  0  0  0 
    4.1972   -0.1557   -1.3632 O   0  0  0  0  0  0  0  0  0  0  0  0 
   -0.0006    0.0299   -0.3638 H   0  0  0  0  0  0  0  0  0  0  0  0 
    5.5565    4.4584    2.4016 H   0  0  0  0  0  0  0  0  0  0  0  0 
    3.1357    3.8560    2.5349 H   0  0  0  0  0  0  0  0  0  0  0  0 
    3.0339   -4.3573    1.8343 H   0  0  0  0  0  0  0  0  0  0  0  0 
    7.1197    2.9603    1.1999 H   0  0  0  0  0  0  0  0  0  0  0  0 
    2.3264    1.7981    1.4457 H   0  0  0  0  0  0  0  0  0  0  0  0 
    2.2729   -2.2329    0.7842 H   0  0  0  0  0  0  0  0  0  0  0  0 
    6.3416    0.3942   -1.0467 H   0  0  0  0  0  0  0  0  0  0  0  0 
    7.6056    1.1076   -0.0425 H   0  0  0  0  0  0  0  0  0  0  0  0 
    7.2006   -0.4849    1.7529 H   0  0  0  0  0  0  0  0  0  0  0  0 
    7.5645   -1.3157    0.2632 H   0  0  0  0  0  0  0  0  0  0  0  0 
    5.4919   -4.6245    2.3052 H   0  0  0  0  0  0  0  0  0  0  0  0 
    3.8814    0.6518   -1.8045 H   0  0  0  0  0  0  0  0  0  0  0  0 
  1  2  3  0  0  0  0 
  3  4  1  0  0  0  0 
  3 20  1  0  0  0  0 
  4 21  1  0  0  0  0 
  5 22  1  0  0  0  0 
  5 11  1  0  0  0  0 
  6  3  2  0  0  0  0 
  7 24  1  0  0  0  0 
  7  4  2  0  0  0  0 
  8  5  2  0  0  0  0 
  9 12  1  0  0  0  0 
  9 10  1  0  0  0  0 
 10 15  1  0  0  0  0 
 10 28  1  0  0  0  0 
 11 30  1  0  0  0  0 
 12 13  2  0  0  0  0 
 12  6  1  0  0  0  0 
 13  7  1  0  0  0  0 
 14 15  2  0  0  0  0 
 14  8  1  0  0  0  0 
 15 17  1  0  0  0  0 
 16  2  1  1  0  0  0 
 16 14  1  0  0  0  0 
 16 13  1  0  0  0  0 
 17 11  2  0  0  0  0 
 18 16  1  0  0  0  0 
 19  1  1  0  0  0  0 
 23  6  1  0  0  0  0 
 25  8  1  0  0  0  0 
 26  9  1  0  0  0  0 
 27  9  1  0  0  0  0 
 29 10  1  0  0  0  0 
 31 18  1  0  0  0  0 
M  END 
>  <HBA> 
2 
 
>  <HBD> 
1 
 
>  <TPSA> 
33.12 
 
>  <cid> 
35881 
 
>  <dipole> 
2.59 
 
>  <excitation_energy_1> 
4.802 
 
>  <excitation_energy_2> 
4.94 
 
>  <excitation_energy_3> 
4.99 
 
>  <excitation_energy_4> 
5.112 
 
>  <homo_energy> 
-6.46 
 
>  <homo_lumo_gap> 
5.769 
 
>  <logP> 
2.049 
 
>  <lumo_energy> 
-0.691 
 
>  <melting_point> 
126.89 
 
>  <molecular_refractivity> 
70.33 
 
>  <oscillator_strength_1> 
0.0054 
 
>  <oscillator_strength_2> 
0.0048 
 
>  <oscillator_strength_3> 
0.0523 
 
>  <oscillator_strength_4> 
0.0776 
 
>  <open_babel_can_smiles> 
C#C[C@@]1(O)c2ccccc2CCc2c1cccn2 
 
>  <mulliken_charges> 
31 
1   -0.53799 
2   0.354742 
3   -0.116842 
4   -0.139643 
5   -0.152495 
6   -0.198419 
7   -0.171524 
8   -0.138582 
9   -0.353332 
10   -0.31104 
11   0.048046 
12   0.133571 
13   0.063785 
14   0.124954 
15   0.257689 
16   0.020892 
17   -0.476063 
18   -0.606883 
19   0.201284 
20   0.130307 
21   0.12977 
22   0.134783 
23   0.126359 
24   0.142832 
25   0.155086 
26   0.177473 
27   0.135379 
28   0.164512 
29   0.166991 
30   0.139063 
31   0.395294 
 
>  <lowdin_charges> 
31 
1   -0.245696 
2   -0.04008 
3   -0.151305 
4   -0.163014 
5   -0.184562 
6   -0.165677 
7   -0.159978 
8   -0.128647 
9   -0.286912 
10   -0.274233 
11   -0.083984 
12   0.001577 
13   -0.036888 
14   -0.028748 
15   0.060731 
16   0.142389 
17   -0.15828 
18   -0.435549 
19   0.208282 
20   0.158816 
21   0.159715 
22   0.164442 
23   0.154403 
24   0.168522 
25   0.17452 
26   0.166468 
27   0.14947 
28   0.162551 
29   0.168822 
30   0.155617 
31   0.347227 
 
$$$$ 
 
