PCCDB-ID:  56263 
public computational chemistry database (PCCDB) project, http://pccdb.org 
 
 33 33  0  0  1  0  0  0  0  0999 V2000 
    2.4165    1.6978   -2.7807 C   0  0  0  0  0  0  0  0  0  0  0  0 
   12.8885    3.1097   -4.4830 C   0  0  0  0  0  0  0  0  0  0  0  0 
    3.8092    1.5064   -3.3887 C   0  0  0  0  0  0  0  0  0  0  0  0 
    4.6217    0.4138   -2.6823 C   0  0  0  0  0  0  0  0  0  0  0  0 
   10.0322    2.7940   -3.8293 C   0  0  0  0  0  0  0  0  0  0  0  0 
   10.0100    0.5458   -4.6565 C   0  0  0  0  0  0  0  0  0  0  0  0 
    8.7219    2.6486   -3.3840 C   0  0  0  0  0  0  0  0  0  0  0  0 
    8.6956    0.3817   -4.2166 C   0  0  0  0  0  0  0  0  0  0  0  0 
    6.0074    0.1939   -3.2756 C   0  0  0  0  0  0  0  0  0  0  0  0 
   12.1340    1.8762   -5.0073 C   0  0  2  0  0  0  0  0  0  0  0  0 
   10.7065    1.7473   -4.4764 C   0  0  0  0  0  0  0  0  0  0  0  0 
    8.0410    1.4401   -3.5745 C   0  0  0  0  0  0  0  0  0  0  0  0 
   12.8503    0.6081   -4.7680 N   0  0  0  0  0  0  0  0  0  0  0  0 
    6.7606    1.3923   -3.0990 O   0  0  0  0  0  0  0  0  0  0  0  0 
    1.8611    2.4880   -3.2984 H   0  0  0  0  0  0  0  0  0  0  0  0 
    2.4812    1.9763   -1.7216 H   0  0  0  0  0  0  0  0  0  0  0  0 
    1.8228    0.7772   -2.8443 H   0  0  0  0  0  0  0  0  0  0  0  0 
   12.4170    4.0503   -4.7904 H   0  0  0  0  0  0  0  0  0  0  0  0 
   13.9108    3.1130   -4.8794 H   0  0  0  0  0  0  0  0  0  0  0  0 
   12.9499    3.1010   -3.3876 H   0  0  0  0  0  0  0  0  0  0  0  0 
    4.3674    2.4487   -3.3465 H   0  0  0  0  0  0  0  0  0  0  0  0 
    3.7139    1.2513   -4.4541 H   0  0  0  0  0  0  0  0  0  0  0  0 
    4.0821   -0.5427   -2.7307 H   0  0  0  0  0  0  0  0  0  0  0  0 
    4.7315    0.6592   -1.6176 H   0  0  0  0  0  0  0  0  0  0  0  0 
   10.5277    3.7452   -3.6620 H   0  0  0  0  0  0  0  0  0  0  0  0 
   10.5186   -0.2817   -5.1407 H   0  0  0  0  0  0  0  0  0  0  0  0 
    8.2072    3.4620   -2.8817 H   0  0  0  0  0  0  0  0  0  0  0  0 
    8.1975   -0.5679   -4.3764 H   0  0  0  0  0  0  0  0  0  0  0  0 
    5.9368   -0.0484   -4.3468 H   0  0  0  0  0  0  0  0  0  0  0  0 
    6.5150   -0.6423   -2.7731 H   0  0  0  0  0  0  0  0  0  0  0  0 
   12.0751    1.9737   -6.1024 H   0  0  0  0  0  0  0  0  0  0  0  0 
   12.9542    0.4691   -3.7621 H   0  0  0  0  0  0  0  0  0  0  0  0 
   13.7946    0.6788   -5.1470 H   0  0  0  0  0  0  0  0  0  0  0  0 
  1 16  1  0  0  0  0 
  2 20  1  0  0  0  0 
  3 21  1  0  0  0  0 
  3  1  1  0  0  0  0 
  3  4  1  0  0  0  0 
  4 24  1  0  0  0  0 
  5 25  1  0  0  0  0 
  5  7  2  0  0  0  0 
  6 11  2  0  0  0  0 
  6  8  1  0  0  0  0 
  7 27  1  0  0  0  0 
  8 12  2  0  0  0  0 
  9 14  1  0  0  0  0 
  9 30  1  0  0  0  0 
  9  4  1  0  0  0  0 
 10 31  1  6  0  0  0 
 10 13  1  0  0  0  0 
 10  2  1  0  0  0  0 
 10 11  1  0  0  0  0 
 11  5  1  0  0  0  0 
 12  7  1  0  0  0  0 
 12 14  1  0  0  0  0 
 13 32  1  0  0  0  0 
 15  1  1  0  0  0  0 
 17  1  1  0  0  0  0 
 18  2  1  0  0  0  0 
 19  2  1  0  0  0  0 
 22  3  1  0  0  0  0 
 23  4  1  0  0  0  0 
 26  6  1  0  0  0  0 
 28  8  1  0  0  0  0 
 29  9  1  0  0  0  0 
 33 13  1  0  0  0  0 
M  END 
>  <HBA> 
2 
 
>  <HBD> 
1 
 
>  <TPSA> 
35.25 
 
>  <cid> 
56263 
 
>  <dipole> 
0.5 
 
>  <excitation_energy_1> 
4.935 
 
>  <excitation_energy_2> 
5.183 
 
>  <excitation_energy_3> 
5.451 
 
>  <excitation_energy_4> 
5.615 
 
>  <homo_energy> 
-5.592 
 
>  <homo_lumo_gap> 
5.826 
 
>  <logP> 
3.586 
 
>  <lumo_energy> 
0.234 
 
>  <melting_point> 
64.85 
 
>  <molecular_refractivity> 
59.84 
 
>  <oscillator_strength_1> 
0.0246 
 
>  <oscillator_strength_2> 
0.1457 
 
>  <oscillator_strength_3> 
0.0332 
 
>  <oscillator_strength_4> 
0.0106 
 
>  <open_babel_can_smiles> 
CCCCOc1ccc(cc1)[C@H](N)C 
 
>  <mulliken_charges> 
33 
1   -0.44273 
2   -0.458872 
3   -0.248185 
4   -0.27063 
5   -0.191362 
6   -0.179234 
7   -0.183666 
8   -0.196421 
9   -0.033445 
10   -0.037931 
11   0.137796 
12   0.383624 
13   -0.709251 
14   -0.524834 
15   0.144277 
16   0.143357 
17   0.139415 
18   0.147232 
19   0.134669 
20   0.143468 
21   0.156148 
22   0.128572 
23   0.132654 
24   0.146425 
25   0.12214 
26   0.151464 
27   0.130746 
28   0.130225 
29   0.135734 
30   0.13769 
31   0.146331 
32   0.292644 
33   0.291949 
 
>  <lowdin_charges> 
33 
1   -0.443991 
2   -0.460264 
3   -0.272511 
4   -0.278915 
5   -0.162182 
6   -0.148579 
7   -0.188761 
8   -0.215363 
9   -0.125937 
10   -0.058483 
11   -0.035818 
12   0.101881 
13   -0.544717 
14   -0.205817 
15   0.151824 
16   0.145856 
17   0.145155 
18   0.151437 
19   0.145869 
20   0.145916 
21   0.151399 
22   0.137054 
23   0.145968 
24   0.147625 
25   0.157112 
26   0.170962 
27   0.164059 
28   0.16057 
29   0.13427 
30   0.139678 
31   0.144036 
32   0.250376 
33   0.250291 
 
$$$$ 
 
