PCCDB-ID:  62218 
public computational chemistry database (PCCDB) project, http://pccdb.org 
 
 26 25  0  0  0  0  0  0  0  0999 V2000 
    3.8558   -3.0511   -0.5776 C   0  0  0  0  0  0  0  0  0  0  0  0 
    6.2199    1.9035   -3.3098 C   0  0  0  0  0  0  0  0  0  0  0  0 
    7.9899    1.6056   -0.9586 C   0  0  0  0  0  0  0  0  0  0  0  0 
    3.3003   -2.7627   -1.9778 C   0  0  0  0  0  0  0  0  0  0  0  0 
    2.8007   -1.3204   -2.1780 C   0  0  0  0  0  0  0  0  0  0  0  0 
    3.8375   -0.2125   -1.9246 C   0  0  0  0  0  0  0  0  0  0  0  0 
    5.0624   -0.2739   -2.8609 C   0  0  0  0  0  0  0  0  0  0  0  0 
    6.0846    0.7985   -2.5609 C   0  0  0  0  0  0  0  0  0  0  0  0 
    6.9551    0.5639   -1.3591 C   0  0  0  0  0  0  0  0  0  0  0  0 
    6.8346   -0.4647   -0.7080 O   0  0  0  0  0  0  0  0  0  0  0  0 
    4.1077   -4.1124   -0.4686 H   0  0  0  0  0  0  0  0  0  0  0  0 
    3.1195   -2.8043    0.1984 H   0  0  0  0  0  0  0  0  0  0  0  0 
    4.7638   -2.4732   -0.3754 H   0  0  0  0  0  0  0  0  0  0  0  0 
    5.5987    2.0698   -4.1868 H   0  0  0  0  0  0  0  0  0  0  0  0 
    6.9455    2.6793   -3.0866 H   0  0  0  0  0  0  0  0  0  0  0  0 
    7.5170    2.5713   -0.7462 H   0  0  0  0  0  0  0  0  0  0  0  0 
    8.7207    1.7665   -1.7593 H   0  0  0  0  0  0  0  0  0  0  0  0 
    8.5080    1.2531   -0.0651 H   0  0  0  0  0  0  0  0  0  0  0  0 
    2.4642   -3.4444   -2.1858 H   0  0  0  0  0  0  0  0  0  0  0  0 
    4.0683   -2.9983   -2.7269 H   0  0  0  0  0  0  0  0  0  0  0  0 
    1.9474   -1.1479   -1.5061 H   0  0  0  0  0  0  0  0  0  0  0  0 
    2.4079   -1.2197   -3.2005 H   0  0  0  0  0  0  0  0  0  0  0  0 
    4.1823   -0.2578   -0.8862 H   0  0  0  0  0  0  0  0  0  0  0  0 
    3.3503    0.7642   -2.0482 H   0  0  0  0  0  0  0  0  0  0  0  0 
    4.7297   -0.1784   -3.9023 H   0  0  0  0  0  0  0  0  0  0  0  0 
    5.5455   -1.2510   -2.7582 H   0  0  0  0  0  0  0  0  0  0  0  0 
  1 11  1  0  0  0  0 
  1 13  1  0  0  0  0 
  1 12  1  0  0  0  0 
  2 15  1  0  0  0  0 
  2  8  2  0  0  0  0 
  3 16  1  0  0  0  0 
  3 18  1  0  0  0  0 
  4  1  1  0  0  0  0 
  5  4  1  0  0  0  0 
  5  6  1  0  0  0  0 
  5 21  1  0  0  0  0 
  6 23  1  0  0  0  0 
  7 26  1  0  0  0  0 
  7  8  1  0  0  0  0 
  7  6  1  0  0  0  0 
  8  9  1  0  0  0  0 
  9  3  1  0  0  0  0 
  9 10  2  0  0  0  0 
 14  2  1  0  0  0  0 
 17  3  1  0  0  0  0 
 19  4  1  0  0  0  0 
 20  4  1  0  0  0  0 
 22  5  1  0  0  0  0 
 24  6  1  0  0  0  0 
 25  7  1  0  0  0  0 
M  END 
>  <HBA> 
1 
 
>  <HBD> 
0 
 
>  <TPSA> 
17.07 
 
>  <cid> 
62218 
 
>  <dipole> 
2.66 
 
>  <excitation_energy_1> 
3.659 
 
>  <excitation_energy_2> 
5.442 
 
>  <excitation_energy_3> 
5.987 
 
>  <excitation_energy_4> 
6.023 
 
>  <homo_energy> 
-6.751 
 
>  <homo_lumo_gap> 
5.293 
 
>  <logP> 
2.712 
 
>  <lumo_energy> 
-1.459 
 
>  <melting_point> 
-24.34 
 
>  <molecular_refractivity> 
45.1 
 
>  <oscillator_strength_1> 
0.0004 
 
>  <oscillator_strength_2> 
0.1881 
 
>  <oscillator_strength_3> 
0.0006 
 
>  <oscillator_strength_4> 
0.0046 
 
>  <open_babel_can_smiles> 
CCCCCC(=C)C(=O)C 
 
>  <mulliken_charges> 
26 
1   -0.457298 
2   -0.3963 
3   -0.543383 
4   -0.250181 
5   -0.251447 
6   -0.261679 
7   -0.32761 
8   0.151362 
9   0.418791 
10   -0.450773 
11   0.137768 
12   0.134895 
13   0.176174 
14   0.154079 
15   0.151055 
16   0.171219 
17   0.171384 
18   0.181227 
19   0.127751 
20   0.132644 
21   0.127878 
22   0.122686 
23   0.157997 
24   0.125636 
25   0.130845 
26   0.165278 
 
>  <lowdin_charges> 
26 
1   -0.452729 
2   -0.313245 
3   -0.476582 
4   -0.277197 
5   -0.276 
6   -0.275506 
7   -0.272624 
8   -0.028074 
9   0.161373 
10   -0.240945 
11   0.146904 
12   0.144087 
13   0.160912 
14   0.165139 
15   0.16435 
16   0.169875 
17   0.170904 
18   0.175301 
19   0.141176 
20   0.139205 
21   0.141368 
22   0.136254 
23   0.15103 
24   0.139449 
25   0.143796 
26   0.161776 
 
$$$$ 
 
