PCCDB-ID:  70265 
public computational chemistry database (PCCDB) project, http://pccdb.org 
 
 12 12  0  0  1  0  0  0  0  0999 V2000 
   -0.6280    1.1665    0.0316 C   0  0  0  0  0  0  0  0  0  0  0  0 
   -1.3637   -0.0465    0.0611 C   0  0  2  0  0  0  0  0  0  0  0  0 
    0.6249   -1.1040   -0.0045 C   0  0  0  0  0  0  0  0  0  0  0  0 
   -2.7212   -0.0730    0.1435 N   0  0  0  0  0  0  0  0  0  0  0  0 
    0.6921    1.1649   -0.0182 N   0  0  0  0  0  0  0  0  0  0  0  0 
   -0.7100   -1.2094    0.0373 N   0  0  0  0  0  0  0  0  0  0  0  0 
    1.3650    0.0081   -0.0369 N   0  0  0  0  0  0  0  0  0  0  0  0 
    1.3211   -2.2516   -0.0230 O   0  0  0  0  0  0  0  0  0  0  0  0 
   -1.1160    2.1375    0.0504 H   0  0  0  0  0  0  0  0  0  0  0  0 
   -3.2524    0.7598   -0.0610 H   0  0  0  0  0  0  0  0  0  0  0  0 
   -3.1781   -0.9622   -0.0044 H   0  0  0  0  0  0  0  0  0  0  0  0 
    0.6654   -2.9701    0.0058 H   0  0  0  0  0  0  0  0  0  0  0  0 
  1  9  1  0  0  0  0 
  1  2  1  0  0  0  0 
  2  4  1  1  0  0  0 
  3  6  2  0  0  0  0 
  5  1  2  0  0  0  0 
  6  2  1  0  0  0  0 
  7  5  1  0  0  0  0 
  7  3  2  0  0  0  0 
  8  3  1  0  0  0  0 
  8 12  1  0  0  0  0 
 10  4  1  0  0  0  0 
 11  4  1  0  0  0  0 
M  RAD  1   2   2 
M  END 
>  <HBA> 
4 
 
>  <HBD> 
2 
 
>  <TPSA> 
84.66 
 
>  <cid> 
70265 
 
>  <dipole> 
6.29 
 
>  <excitation_energy_1> 
3.56 
 
>  <excitation_energy_2> 
4.745 
 
>  <excitation_energy_3> 
4.797 
 
>  <excitation_energy_4> 
5.506 
 
>  <homo_energy> 
-6.291 
 
>  <homo_lumo_gap> 
4.942 
 
>  <logP> 
-0.672 
 
>  <lumo_energy> 
-1.35 
 
>  <melting_point> 
166.2 
 
>  <molecular_refractivity> 
27.06 
 
>  <oscillator_strength_1> 
0.005 
 
>  <oscillator_strength_2> 
0.1167 
 
>  <oscillator_strength_3> 
0.0013 
 
>  <oscillator_strength_4> 
0.009 
 
>  <open_babel_can_smiles> 
N[C]1C=NN=[C](=N1)O 
 
>  <mulliken_charges> 
12 
1   -0.008159 
2   0.531736 
3   0.659587 
4   -0.781502 
5   -0.222518 
6   -0.555351 
7   -0.307723 
8   -0.577638 
9   0.148424 
10   0.346934 
11   0.349593 
12   0.416618 
 
>  <lowdin_charges> 
12 
1   -0.185988 
2   0.118008 
3   0.147324 
4   -0.445939 
5   -0.049055 
6   -0.226954 
7   -0.151242 
8   -0.331146 
9   0.166668 
10   0.29555 
11   0.297201 
12   0.365572 
 
$$$$ 
 
