PCCDB-ID:  52616 
public computational chemistry database (PCCDB) project, http://pccdb.org 
 
 38 38  0  0  0  0  0  0  0  0999 V2000 
    0.7719   -1.6048   -0.3199 C   0  0  0  0  0  0  0  0  0  0  0  0 
    2.6163   -2.2452    1.2232 C   0  0  0  0  0  0  0  0  0  0  0  0 
    2.3948   -3.3799   -1.0113 C   0  0  0  0  0  0  0  0  0  0  0  0 
    5.0190    0.4474   -1.7630 C   0  0  0  0  0  0  0  0  0  0  0  0 
    5.4590   -1.4264   -0.1700 C   0  0  0  0  0  0  0  0  0  0  0  0 
    4.2829   -2.8184   -4.6706 C   0  0  0  0  0  0  0  0  0  0  0  0 
    4.0789   -1.5824   -3.7845 C   0  0  0  0  0  0  0  0  0  0  0  0 
    5.7419   -3.2369   -4.4806 C   0  0  0  0  0  0  0  0  0  0  0  0 
    3.0642   -0.8730   -0.9163 C   0  0  0  0  0  0  0  0  0  0  0  0 
    2.2554   -2.0393   -0.2642 C   0  0  0  0  0  0  0  0  0  0  0  0 
    4.5631   -0.9685   -1.3357 C   0  0  0  0  0  0  0  0  0  0  0  0 
    4.6873   -1.9273   -2.4907 N   0  0  0  0  0  0  0  0  0  0  0  0 
    7.3091   -1.7449   -2.8683 O   0  0  0  0  0  0  0  0  0  0  0  0 
    6.3214   -3.8552   -1.8856 O   0  0  0  0  0  0  0  0  0  0  0  0 
    6.1894   -2.7018   -2.7849 S   0  0  0  0  0  0  0  0  0  0  0  0 
    0.1307   -2.3483    0.1682 H   0  0  0  0  0  0  0  0  0  0  0  0 
    0.4263   -1.4950   -1.3555 H   0  0  0  0  0  0  0  0  0  0  0  0 
    0.6164   -0.6450    0.1888 H   0  0  0  0  0  0  0  0  0  0  0  0 
    1.9263   -2.9655    1.6794 H   0  0  0  0  0  0  0  0  0  0  0  0 
    2.5320   -1.3067    1.7863 H   0  0  0  0  0  0  0  0  0  0  0  0 
    3.6279   -2.6319    1.3629 H   0  0  0  0  0  0  0  0  0  0  0  0 
    1.7316   -4.1271   -0.5569 H   0  0  0  0  0  0  0  0  0  0  0  0 
    3.4159   -3.7680   -0.9827 H   0  0  0  0  0  0  0  0  0  0  0  0 
    2.1057   -3.2823   -2.0650 H   0  0  0  0  0  0  0  0  0  0  0  0 
    5.0106    1.1204   -0.8988 H   0  0  0  0  0  0  0  0  0  0  0  0 
    4.3568    0.8804   -2.5214 H   0  0  0  0  0  0  0  0  0  0  0  0 
    6.0359    0.4133   -2.1639 H   0  0  0  0  0  0  0  0  0  0  0  0 
    5.2273   -0.8207    0.7112 H   0  0  0  0  0  0  0  0  0  0  0  0 
    6.5161   -1.2790   -0.4084 H   0  0  0  0  0  0  0  0  0  0  0  0 
    5.3157   -2.4783    0.0774 H   0  0  0  0  0  0  0  0  0  0  0  0 
    4.0648   -2.5991   -5.7204 H   0  0  0  0  0  0  0  0  0  0  0  0 
    3.6145   -3.6174   -4.3369 H   0  0  0  0  0  0  0  0  0  0  0  0 
    3.0157   -1.3810   -3.6385 H   0  0  0  0  0  0  0  0  0  0  0  0 
    4.5330   -0.6922   -4.2474 H   0  0  0  0  0  0  0  0  0  0  0  0 
    6.4275   -2.7071   -5.1460 H   0  0  0  0  0  0  0  0  0  0  0  0 
    5.9218   -4.3119   -4.5377 H   0  0  0  0  0  0  0  0  0  0  0  0 
    3.0099   -0.0213   -0.2236 H   0  0  0  0  0  0  0  0  0  0  0  0 
    2.5047   -0.5444   -1.8021 H   0  0  0  0  0  0  0  0  0  0  0  0 
  1 10  1  0  0  0  0 
  1 16  1  0  0  0  0 
  1 18  1  0  0  0  0 
  2 21  1  0  0  0  0 
  2 19  1  0  0  0  0 
  2 20  1  0  0  0  0 
  3 23  1  0  0  0  0 
  3 22  1  0  0  0  0 
  3 10  1  0  0  0  0 
  4 11  1  0  0  0  0 
  4 25  1  0  0  0  0 
  5 30  1  0  0  0  0 
  5 28  1  0  0  0  0 
  6  8  1  0  0  0  0 
  6 32  1  0  0  0  0 
  6  7  1  0  0  0  0 
  7 33  1  0  0  0  0 
  7 12  1  0  0  0  0 
  8 15  1  0  0  0  0 
  9 10  1  0  0  0  0 
  9 37  1  0  0  0  0 
 10  2  1  0  0  0  0 
 11  9  1  0  0  0  0 
 11  5  1  0  0  0  0 
 12 11  1  0  0  0  0 
 13 15  2  0  0  0  0 
 15 12  1  0  0  0  0 
 15 14  2  0  0  0  0 
 17  1  1  0  0  0  0 
 24  3  1  0  0  0  0 
 26  4  1  0  0  0  0 
 27  4  1  0  0  0  0 
 29  5  1  0  0  0  0 
 31  6  1  0  0  0  0 
 34  7  1  0  0  0  0 
 35  8  1  0  0  0  0 
 36  8  1  0  0  0  0 
 38  9  1  0  0  0  0 
M  END 
>  <HBA> 
3 
 
>  <HBD> 
0 
 
>  <TPSA> 
45.76 
 
>  <cid> 
52616 
 
>  <dipole> 
4.58 
 
>  <excitation_energy_1> 
5.631 
 
>  <excitation_energy_2> 
6.074 
 
>  <excitation_energy_3> 
6.121 
 
>  <excitation_energy_4> 
6.249 
 
>  <homo_energy> 
-6.433 
 
>  <homo_lumo_gap> 
7.832 
 
>  <logP> 
3.255 
 
>  <lumo_energy> 
1.399 
 
>  <melting_point> 
54.68 
 
>  <molecular_refractivity> 
68.43 
 
>  <oscillator_strength_1> 
0.0044 
 
>  <oscillator_strength_2> 
0.0064 
 
>  <oscillator_strength_3> 
0.0032 
 
>  <oscillator_strength_4> 
0.0168 
 
>  <open_babel_can_smiles> 
CC(CC(N1CCCS1(=O)=O)(C)C)(C)C 
 
>  <mulliken_charges> 
38 
1   -0.442351 
2   -0.447244 
3   -0.444084 
4   -0.46447 
5   -0.503657 
6   -0.281355 
7   -0.145149 
8   -0.509851 
9   -0.265758 
10   0.100141 
11   0.218384 
12   -0.58343 
13   -0.544998 
14   -0.534946 
15   1.254545 
16   0.140428 
17   0.13212 
18   0.137418 
19   0.137869 
20   0.132665 
21   0.151688 
22   0.131042 
23   0.176989 
24   0.1232 
25   0.146448 
26   0.13732 
27   0.184332 
28   0.145728 
29   0.186506 
30   0.19137 
31   0.162944 
32   0.178835 
33   0.169072 
34   0.153407 
35   0.20844 
36   0.212471 
37   0.132122 
38   0.121809 
 
>  <lowdin_charges> 
38 
1   -0.441943 
2   -0.447356 
3   -0.444413 
4   -0.459436 
5   -0.457317 
6   -0.276993 
7   -0.201541 
8   -0.421202 
9   -0.281484 
10   0.01741 
11   0.081053 
12   -0.345787 
13   -0.604201 
14   -0.591076 
15   1.292049 
16   0.149108 
17   0.141341 
18   0.14543 
19   0.148645 
20   0.143775 
21   0.15316 
22   0.144944 
23   0.162209 
24   0.137982 
25   0.155011 
26   0.147013 
27   0.168763 
28   0.156623 
29   0.168798 
30   0.168822 
31   0.160155 
32   0.164892 
33   0.157832 
34   0.140157 
35   0.189207 
36   0.189419 
37   0.148472 
38   0.140478 
 
$$$$ 
 
