PCCDB-ID:  30360 
public computational chemistry database (PCCDB) project, http://pccdb.org 
 
 24 24  0  0  0  0  0  0  0  0999 V2000 
   -1.5730   -0.0109    0.7731 C   0  0  0  0  0  0  0  0  0  0  0  0 
   -1.4131    1.3230    0.0261 C   0  0  0  0  0  0  0  0  0  0  0  0 
   -1.4291   -1.3145   -0.0293 C   0  0  0  0  0  0  0  0  0  0  0  0 
   -0.0398    1.6357   -0.6059 C   0  0  0  0  0  0  0  0  0  0  0  0 
   -0.0516   -1.6257   -0.6546 C   0  0  0  0  0  0  0  0  0  0  0  0 
    1.2055    1.2842    0.2423 C   0  0  0  0  0  0  0  0  0  0  0  0 
    1.1778   -1.3029    0.2274 C   0  0  0  0  0  0  0  0  0  0  0  0 
    2.9594    0.0673   -0.7543 N   0  0  0  0  0  0  0  0  0  0  0  0 
    1.8017   -0.0125   -0.0654 N   0  0  0  0  0  0  0  0  0  0  0  0 
    3.4600   -0.9977   -1.0995 O   0  0  0  0  0  0  0  0  0  0  0  0 
   -2.5741   -0.0139    1.2247 H   0  0  0  0  0  0  0  0  0  0  0  0 
   -0.8803   -0.0317    1.6249 H   0  0  0  0  0  0  0  0  0  0  0  0 
   -1.6466    2.1216    0.7440 H   0  0  0  0  0  0  0  0  0  0  0  0 
   -2.1791    1.3956   -0.7582 H   0  0  0  0  0  0  0  0  0  0  0  0 
   -2.1861   -1.3386   -0.8251 H   0  0  0  0  0  0  0  0  0  0  0  0 
   -1.6870   -2.1379    0.6513 H   0  0  0  0  0  0  0  0  0  0  0  0 
   -0.0097    2.7127   -0.8142 H   0  0  0  0  0  0  0  0  0  0  0  0 
    0.0664    1.1461   -1.5798 H   0  0  0  0  0  0  0  0  0  0  0  0 
    0.0701   -1.1098   -1.6128 H   0  0  0  0  0  0  0  0  0  0  0  0 
   -0.0273   -2.6961   -0.8936 H   0  0  0  0  0  0  0  0  0  0  0  0 
    0.9798    1.3317    1.3154 H   0  0  0  0  0  0  0  0  0  0  0  0 
    2.0044    2.0027    0.0420 H   0  0  0  0  0  0  0  0  0  0  0  0 
    1.9696   -2.0322    0.0473 H   0  0  0  0  0  0  0  0  0  0  0  0 
    0.9240   -1.3303    1.2934 H   0  0  0  0  0  0  0  0  0  0  0  0 
  1 11  1  0  0  0  0 
  1 12  1  0  0  0  0 
  2 13  1  0  0  0  0 
  2  1  1  0  0  0  0 
  3 16  1  0  0  0  0 
  3  1  1  0  0  0  0 
  4  2  1  0  0  0  0 
  4  6  1  0  0  0  0 
  5  3  1  0  0  0  0 
  5  7  1  0  0  0  0 
  6 21  1  0  0  0  0 
  7 24  1  0  0  0  0 
  8  9  1  0  0  0  0 
  9  7  1  0  0  0  0 
  9  6  1  0  0  0  0 
 10  8  2  0  0  0  0 
 14  2  1  0  0  0  0 
 15  3  1  0  0  0  0 
 17  4  1  0  0  0  0 
 18  4  1  0  0  0  0 
 19  5  1  0  0  0  0 
 20  5  1  0  0  0  0 
 22  6  1  0  0  0  0 
 23  7  1  0  0  0  0 
M  END 
>  <HBA> 
3 
 
>  <HBD> 
0 
 
>  <TPSA> 
32.67 
 
>  <cid> 
30360 
 
>  <dipole> 
4.24 
 
>  <excitation_energy_1> 
3.395 
 
>  <excitation_energy_2> 
5.57 
 
>  <excitation_energy_3> 
5.662 
 
>  <excitation_energy_4> 
5.874 
 
>  <homo_energy> 
-5.938 
 
>  <homo_lumo_gap> 
5.241 
 
>  <logP> 
1.872 
 
>  <lumo_energy> 
-0.697 
 
>  <melting_point> 
17.04 
 
>  <molecular_refractivity> 
45.2 
 
>  <oscillator_strength_1> 
0.001 
 
>  <oscillator_strength_2> 
0.0615 
 
>  <oscillator_strength_3> 
0.1194 
 
>  <oscillator_strength_4> 
0.0082 
 
>  <open_babel_can_smiles> 
O=NN1CCCCCCC1 
 
>  <mulliken_charges> 
24 
1   -0.266022 
2   -0.261672 
3   -0.262443 
4   -0.27301 
5   -0.270962 
6   -0.138912 
7   -0.162399 
8   0.152865 
9   -0.229751 
10   -0.38404 
11   0.138068 
12   0.130379 
13   0.135534 
14   0.136927 
15   0.136334 
16   0.136389 
17   0.146185 
18   0.154571 
19   0.155796 
20   0.148985 
21   0.151861 
22   0.176085 
23   0.194387 
24   0.154843 
 
>  <lowdin_charges> 
24 
1   -0.285316 
2   -0.281705 
3   -0.281782 
4   -0.289981 
5   -0.285026 
6   -0.203262 
7   -0.224389 
8   0.049747 
9   -0.046184 
10   -0.273614 
11   0.148971 
12   0.136955 
13   0.144862 
14   0.146116 
15   0.145764 
16   0.145261 
17   0.15198 
18   0.151081 
19   0.151543 
20   0.152996 
21   0.146312 
22   0.16993 
23   0.179063 
24   0.150677 
 
$$$$ 
 
