PCCDB-ID:  9589 
public computational chemistry database (PCCDB) project, http://pccdb.org 
 
 16 16  0  0  0  0  0  0  0  0999 V2000 
    1.8517   -0.1610    1.2716 C   0  0  0  0  0  0  0  0  0  0  0  0 
    4.4970   -2.1491   -2.4827 C   0  0  0  0  0  0  0  0  0  0  0  0 
    4.0702   -1.0267   -1.7850 C   0  0  0  0  0  0  0  0  0  0  0  0 
    4.0579   -3.4054   -2.0534 C   0  0  0  0  0  0  0  0  0  0  0  0 
    2.8460   -2.5008   -0.3426 C   0  0  0  0  0  0  0  0  0  0  0  0 
    2.7609    0.0206    0.0693 C   0  0  0  0  0  0  0  0  0  0  0  0 
    3.2209   -1.1932   -0.6819 C   0  0  0  0  0  0  0  0  0  0  0  0 
    3.2471   -3.5920   -1.0048 N   0  0  0  0  0  0  0  0  0  0  0  0 
    3.1158    1.1334   -0.2870 O   0  0  0  0  0  0  0  0  0  0  0  0 
    2.3230   -0.7957    2.0313 H   0  0  0  0  0  0  0  0  0  0  0  0 
    0.9105   -0.6440    0.9824 H   0  0  0  0  0  0  0  0  0  0  0  0 
    1.6375    0.8196    1.6998 H   0  0  0  0  0  0  0  0  0  0  0  0 
    5.1560   -2.0626   -3.3414 H   0  0  0  0  0  0  0  0  0  0  0  0 
    4.3725   -0.0224   -2.0649 H   0  0  0  0  0  0  0  0  0  0  0  0 
    4.3727   -4.3066   -2.5772 H   0  0  0  0  0  0  0  0  0  0  0  0 
    2.1886   -2.6864    0.5045 H   0  0  0  0  0  0  0  0  0  0  0  0 
  1 12  1  0  0  0  0 
  1 10  1  0  0  0  0 
  2  4  2  0  0  0  0 
  2  3  1  0  0  0  0 
  3  7  2  0  0  0  0 
  4  8  1  0  0  0  0 
  5 16  1  0  0  0  0 
  6  1  1  0  0  0  0 
  7  5  1  0  0  0  0 
  7  6  1  0  0  0  0 
  8  5  2  0  0  0  0 
  9  6  2  0  0  0  0 
 11  1  1  0  0  0  0 
 13  2  1  0  0  0  0 
 14  3  1  0  0  0  0 
 15  4  1  0  0  0  0 
M  END 
>  <HBA> 
2 
 
>  <HBD> 
0 
 
>  <TPSA> 
29.96 
 
>  <cid> 
9589 
 
>  <dipole> 
0.84 
 
>  <excitation_energy_1> 
3.66 
 
>  <excitation_energy_2> 
4.334 
 
>  <excitation_energy_3> 
4.857 
 
>  <excitation_energy_4> 
5.03 
 
>  <homo_energy> 
-6.887 
 
>  <homo_lumo_gap> 
5.08 
 
>  <logP> 
1.284 
 
>  <lumo_energy> 
-1.807 
 
>  <melting_point> 
53.72 
 
>  <molecular_refractivity> 
34.43 
 
>  <oscillator_strength_1> 
0.0 
 
>  <oscillator_strength_2> 
0.0005 
 
>  <oscillator_strength_3> 
0.0028 
 
>  <oscillator_strength_4> 
0.0889 
 
>  <open_babel_can_smiles> 
CC(=O)c1cccnc1 
 
>  <mulliken_charges> 
16 
1   -0.54344 
2   -0.140709 
3   -0.125016 
4   0.047897 
5   -0.006572 
6   0.408897 
7   0.060575 
8   -0.412498 
9   -0.448009 
10   0.175131 
11   0.175915 
12   0.185011 
13   0.147168 
14   0.177366 
15   0.151388 
16   0.146896 
 
>  <lowdin_charges> 
16 
1   -0.476668 
2   -0.171512 
3   -0.100579 
4   -0.075163 
5   -0.083494 
6   0.164502 
7   -0.070382 
8   -0.14602 
9   -0.237269 
10   0.173415 
11   0.173107 
12   0.177007 
13   0.168737 
14   0.181335 
15   0.16209 
16   0.160894 
 
$$$$ 
 
