PCCDB-ID:  57047 
public computational chemistry database (PCCDB) project, http://pccdb.org 
 
 28 30  0  0  0  0  0  0  0  0999 V2000 
    0.9491   -0.0306   -0.0475 C   0  0  0  0  0  0  0  0  0  0  0  0 
    2.6571   -5.5837   -0.1509 C   0  0  0  0  0  0  0  0  0  0  0  0 
    4.6247    1.1345   -0.0764 C   0  0  0  0  0  0  0  0  0  0  0  0 
    3.1978    1.1522   -0.0592 C   0  0  0  0  0  0  0  0  0  0  0  0 
    5.2913   -0.0556   -0.0978 C   0  0  0  0  0  0  0  0  0  0  0  0 
    6.2955   -4.3327   -0.1577 C   0  0  0  0  0  0  0  0  0  0  0  0 
    2.4516   -0.0040   -0.0639 C   0  0  0  0  0  0  0  0  0  0  0  0 
    3.8730   -4.7000   -0.1384 C   0  0  0  0  0  0  0  0  0  0  0  0 
    5.1811   -5.2133   -0.1571 C   0  0  0  0  0  0  0  0  0  0  0  0 
    3.7721   -3.2986   -0.1177 C   0  0  0  0  0  0  0  0  0  0  0  0 
    3.1519   -1.2476   -0.0854 C   0  0  0  0  0  0  0  0  0  0  0  0 
    4.9685   -2.5444   -0.1238 C   0  0  0  0  0  0  0  0  0  0  0  0 
    5.4028   -6.5954   -0.2381 N   0  0  0  0  0  0  0  0  0  0  0  0 
    6.2124   -3.0019   -0.1430 N   0  0  0  0  0  0  0  0  0  0  0  0 
    2.6635   -2.4845   -0.0937 N   0  0  0  0  0  0  0  0  0  0  0  0 
    4.5604   -1.2133   -0.1021 N   0  0  0  0  0  0  0  0  0  0  0  0 
    0.5375    0.9829   -0.0294 H   0  0  0  0  0  0  0  0  0  0  0  0 
    0.5781   -0.5774    0.8272 H   0  0  0  0  0  0  0  0  0  0  0  0 
    0.5587   -0.5541   -0.9280 H   0  0  0  0  0  0  0  0  0  0  0  0 
    2.5975   -6.2107    0.7513 H   0  0  0  0  0  0  0  0  0  0  0  0 
    2.6664   -6.2604   -1.0154 H   0  0  0  0  0  0  0  0  0  0  0  0 
    1.7513   -4.9749   -0.1933 H   0  0  0  0  0  0  0  0  0  0  0  0 
    5.1862    2.0618   -0.0727 H   0  0  0  0  0  0  0  0  0  0  0  0 
    2.6855    2.1106   -0.0432 H   0  0  0  0  0  0  0  0  0  0  0  0 
    6.3676   -0.1769   -0.1130 H   0  0  0  0  0  0  0  0  0  0  0  0 
    7.3005   -4.7536   -0.1763 H   0  0  0  0  0  0  0  0  0  0  0  0 
    6.3296   -6.8843    0.0523 H   0  0  0  0  0  0  0  0  0  0  0  0 
    4.6932   -7.1636    0.2087 H   0  0  0  0  0  0  0  0  0  0  0  0 
  1 17  1  0  0  0  0 
  1 18  1  0  0  0  0 
  2  8  1  0  0  0  0 
  2 20  1  0  0  0  0 
  3 23  1  0  0  0  0 
  3  4  1  0  0  0  0 
  4 24  1  0  0  0  0 
  5  3  2  0  0  0  0 
  6  9  2  0  0  0  0 
  6 14  1  0  0  0  0 
  7  4  2  0  0  0  0 
  7  1  1  0  0  0  0 
  8 10  2  0  0  0  0 
  9  8  1  0  0  0  0 
 10 15  1  0  0  0  0 
 11  7  1  0  0  0  0 
 12 10  1  0  0  0  0 
 12 16  1  0  0  0  0 
 13  9  1  0  0  0  0 
 13 27  1  0  0  0  0 
 13 28  1  0  0  0  0 
 14 12  2  0  0  0  0 
 15 11  2  0  0  0  0 
 16  5  1  0  0  0  0 
 16 11  1  0  0  0  0 
 19  1  1  0  0  0  0 
 21  2  1  0  0  0  0 
 22  2  1  0  0  0  0 
 25  5  1  0  0  0  0 
 26  6  1  0  0  0  0 
M  END 
>  <HBA> 
4 
 
>  <HBD> 
1 
 
>  <TPSA> 
56.21 
 
>  <cid> 
57047 
 
>  <dipole> 
1.23 
 
>  <excitation_energy_1> 
3.614 
 
>  <excitation_energy_2> 
3.755 
 
>  <excitation_energy_3> 
4.531 
 
>  <excitation_energy_4> 
4.622 
 
>  <homo_energy> 
-5.372 
 
>  <homo_lumo_gap> 
4.185 
 
>  <logP> 
2.663 
 
>  <lumo_energy> 
-1.186 
 
>  <melting_point> 
177.06 
 
>  <molecular_refractivity> 
64.83 
 
>  <oscillator_strength_1> 
0.0608 
 
>  <oscillator_strength_2> 
0.151 
 
>  <oscillator_strength_3> 
0.0048 
 
>  <oscillator_strength_4> 
0.1883 
 
>  <open_babel_can_smiles> 
Nc1cnc2c(c1C)nc1n2cccc1C 
 
>  <mulliken_charges> 
28 
1   -0.511687 
2   -0.556286 
3   -0.199176 
4   -0.166678 
5   0.08268 
6   -0.016447 
7   0.106086 
8   0.147447 
9   0.210346 
10   0.174007 
11   0.502107 
12   0.49584 
13   -0.797143 
14   -0.515195 
15   -0.619046 
16   -0.583947 
17   0.147263 
18   0.175572 
19   0.176159 
20   0.149118 
21   0.168207 
22   0.196526 
23   0.144187 
24   0.133881 
25   0.186799 
26   0.124613 
27   0.320769 
28   0.324 
 
>  <lowdin_charges> 
28 
1   -0.4324 
2   -0.446528 
3   -0.191463 
4   -0.159598 
5   -0.085589 
6   -0.13602 
7   -0.010468 
8   -0.029091 
9   0.027978 
10   0.007009 
11   0.077864 
12   0.020208 
13   -0.49222 
14   -0.1513 
15   -0.23416 
16   0.026433 
17   0.154156 
18   0.170665 
19   0.170931 
20   0.153233 
21   0.163403 
22   0.180479 
23   0.16958 
24   0.161761 
25   0.181869 
26   0.15008 
27   0.27491 
28   0.278277 
 
$$$$ 
 
