PCCDB-ID:  69344 
public computational chemistry database (PCCDB) project, http://pccdb.org 
 
 24 23  0  0  0  0  0  0  0  0999 V2000 
    8.4891    2.6516    3.4593 C   0  0  0  0  0  0  0  0  0  0  0  0 
    5.9909    2.0767   -5.0271 C   0  0  0  0  0  0  0  0  0  0  0  0 
    8.8405    2.6770    1.9678 C   0  0  0  0  0  0  0  0  0  0  0  0 
    6.5151    2.9024   -3.8472 C   0  0  0  0  0  0  0  0  0  0  0  0 
    8.0330    3.7290    1.2157 C   0  0  0  0  0  0  0  0  0  0  0  0 
    7.8088    2.3255   -3.2840 C   0  0  0  0  0  0  0  0  0  0  0  0 
    7.8483    2.9452   -1.0050 C   0  0  0  0  0  0  0  0  0  0  0  0 
    7.0163    2.1139   -0.7042 O   0  0  0  0  0  0  0  0  0  0  0  0 
    8.4324    3.8191   -0.1712 O   0  0  0  0  0  0  0  0  0  0  0  0 
    8.3498    3.1564   -2.2312 O   0  0  0  0  0  0  0  0  0  0  0  0 
    9.0725    1.8879    3.9841 H   0  0  0  0  0  0  0  0  0  0  0  0 
    7.4279    2.4238    3.6152 H   0  0  0  0  0  0  0  0  0  0  0  0 
    8.6980    3.6163    3.9379 H   0  0  0  0  0  0  0  0  0  0  0  0 
    5.0593    2.5005   -5.4163 H   0  0  0  0  0  0  0  0  0  0  0  0 
    5.7856    1.0414   -4.7296 H   0  0  0  0  0  0  0  0  0  0  0  0 
    6.7137    2.0505   -5.8519 H   0  0  0  0  0  0  0  0  0  0  0  0 
    8.6429    1.6972    1.5185 H   0  0  0  0  0  0  0  0  0  0  0  0 
    9.9086    2.8884    1.8326 H   0  0  0  0  0  0  0  0  0  0  0  0 
    5.7673    2.9302   -3.0465 H   0  0  0  0  0  0  0  0  0  0  0  0 
    6.6971    3.9383   -4.1596 H   0  0  0  0  0  0  0  0  0  0  0  0 
    8.2182    4.7305    1.6140 H   0  0  0  0  0  0  0  0  0  0  0  0 
    6.9621    3.5129    1.2643 H   0  0  0  0  0  0  0  0  0  0  0  0 
    8.5974    2.3054   -4.0415 H   0  0  0  0  0  0  0  0  0  0  0  0 
    7.6542    1.3147   -2.8964 H   0  0  0  0  0  0  0  0  0  0  0  0 
  1 12  1  0  0  0  0 
  1 13  1  0  0  0  0 
  1 11  1  0  0  0  0 
  2 15  1  0  0  0  0 
  2  4  1  0  0  0  0 
  3  1  1  0  0  0  0 
  4  6  1  0  0  0  0 
  4 19  1  0  0  0  0 
  5 22  1  0  0  0  0 
  5 21  1  0  0  0  0 
  5  3  1  0  0  0  0 
  6 24  1  0  0  0  0 
  6 10  1  0  0  0  0 
  7  8  2  0  0  0  0 
  7  9  1  0  0  0  0 
  9  5  1  0  0  0  0 
 10  7  1  0  0  0  0 
 14  2  1  0  0  0  0 
 16  2  1  0  0  0  0 
 17  3  1  0  0  0  0 
 18  3  1  0  0  0  0 
 20  4  1  0  0  0  0 
 23  6  1  0  0  0  0 
M  END 
>  <HBA> 
3 
 
>  <HBD> 
0 
 
>  <TPSA> 
35.53 
 
>  <cid> 
69344 
 
>  <dipole> 
0.13 
 
>  <excitation_energy_1> 
6.937 
 
>  <excitation_energy_2> 
7.542 
 
>  <excitation_energy_3> 
7.754 
 
>  <excitation_energy_4> 
7.828 
 
>  <homo_energy> 
-7.63 
 
>  <homo_lumo_gap> 
8.89 
 
>  <logP> 
1.96 
 
>  <lumo_energy> 
1.26 
 
>  <melting_point> 
-13.4 
 
>  <molecular_refractivity> 
38.52 
 
>  <oscillator_strength_1> 
0.0003 
 
>  <oscillator_strength_2> 
0.009 
 
>  <oscillator_strength_3> 
0.002 
 
>  <oscillator_strength_4> 
0.0223 
 
>  <open_babel_can_smiles> 
CCCOC(=O)OCCC 
 
>  <mulliken_charges> 
24 
1   -0.454236 
2   -0.454285 
3   -0.273688 
4   -0.274102 
5   -0.038876 
6   -0.038854 
7   0.795802 
8   -0.501068 
9   -0.461036 
10   -0.460994 
11   0.153731 
12   0.151875 
13   0.145017 
14   0.153734 
15   0.151953 
16   0.145035 
17   0.163014 
18   0.148211 
19   0.163144 
20   0.148248 
21   0.15176 
22   0.166881 
23   0.151833 
24   0.166901 
 
>  <lowdin_charges> 
24 
1   -0.443714 
2   -0.443689 
3   -0.284081 
4   -0.285495 
5   -0.123293 
6   -0.12765 
7   0.230812 
8   -0.302311 
9   -0.178846 
10   -0.178442 
11   0.157996 
12   0.150075 
13   0.147958 
14   0.156994 
15   0.150463 
16   0.148582 
17   0.156464 
18   0.147377 
19   0.157449 
20   0.147874 
21   0.151603 
22   0.154923 
23   0.153077 
24   0.155874 
 
$$$$ 
 
