PCCDB-ID:  24423 
public computational chemistry database (PCCDB) project, http://pccdb.org 
 
 26 26  0  0  0  0  0  0  0  0999 V2000 
    1.6325    1.0203    0.7222 C   0  0  0  0  0  0  0  0  0  0  0  0 
    2.2902   -1.3771    0.1636 C   0  0  0  0  0  0  0  0  0  0  0  0 
    1.9881    0.6938   -2.2026 C   0  0  0  0  0  0  0  0  0  0  0  0 
    6.7039    2.5986   -1.9768 C   0  0  0  0  0  0  0  0  0  0  0  0 
    6.6376    1.5866   -1.0155 C   0  0  0  0  0  0  0  0  0  0  0  0 
    5.5507    2.9094   -2.6942 C   0  0  0  0  0  0  0  0  0  0  0  0 
    5.4513    0.9011   -0.7768 C   0  0  0  0  0  0  0  0  0  0  0  0 
    4.3504    2.2396   -2.4536 C   0  0  0  0  0  0  0  0  0  0  0  0 
    2.7032    0.1009    0.1063 C   0  0  0  0  0  0  0  0  0  0  0  0 
    4.2690    1.2184   -1.4836 C   0  0  0  0  0  0  0  0  0  0  0  0 
    3.0799    0.5063   -1.2633 N   0  0  0  0  0  0  0  0  0  0  0  0 
    1.4727    0.7613    1.7751 H   0  0  0  0  0  0  0  0  0  0  0  0 
    0.6683    0.9257    0.2100 H   0  0  0  0  0  0  0  0  0  0  0  0 
    1.9454    2.0691    0.6732 H   0  0  0  0  0  0  0  0  0  0  0  0 
    2.0836   -1.6756    1.1980 H   0  0  0  0  0  0  0  0  0  0  0  0 
    3.0869   -2.0159   -0.2304 H   0  0  0  0  0  0  0  0  0  0  0  0 
    1.3820   -1.5705   -0.4193 H   0  0  0  0  0  0  0  0  0  0  0  0 
    1.2231   -0.0667   -2.0261 H   0  0  0  0  0  0  0  0  0  0  0  0 
    2.3535    0.5625   -3.2261 H   0  0  0  0  0  0  0  0  0  0  0  0 
    1.5028    1.6821   -2.1375 H   0  0  0  0  0  0  0  0  0  0  0  0 
    7.6351    3.1245   -2.1657 H   0  0  0  0  0  0  0  0  0  0  0  0 
    7.5271    1.3102   -0.4542 H   0  0  0  0  0  0  0  0  0  0  0  0 
    5.5726    3.6935   -3.4474 H   0  0  0  0  0  0  0  0  0  0  0  0 
    5.4522    0.0876   -0.0584 H   0  0  0  0  0  0  0  0  0  0  0  0 
    3.4699    2.5304   -3.0147 H   0  0  0  0  0  0  0  0  0  0  0  0 
    3.6021    0.2135    0.7150 H   0  0  0  0  0  0  0  0  0  0  0  0 
  1 12  1  0  0  0  0 
  2 15  1  0  0  0  0 
  3 20  1  0  0  0  0 
  3 18  1  0  0  0  0 
  3 11  1  0  0  0  0 
  4  5  2  0  0  0  0 
  5  7  1  0  0  0  0 
  5 22  1  0  0  0  0 
  6  8  2  0  0  0  0 
  6  4  1  0  0  0  0 
  7 24  1  0  0  0  0 
  8 10  1  0  0  0  0 
  9  2  1  0  0  0  0 
  9 26  1  0  0  0  0 
  9  1  1  0  0  0  0 
 10 11  1  0  0  0  0 
 10  7  2  0  0  0  0 
 11  9  1  0  0  0  0 
 13  1  1  0  0  0  0 
 14  1  1  0  0  0  0 
 16  2  1  0  0  0  0 
 17  2  1  0  0  0  0 
 19  3  1  0  0  0  0 
 21  4  1  0  0  0  0 
 23  6  1  0  0  0  0 
 25  8  1  0  0  0  0 
M  END 
>  <HBA> 
1 
 
>  <HBD> 
0 
 
>  <TPSA> 
3.24 
 
>  <cid> 
24423 
 
>  <dipole> 
1.6 
 
>  <excitation_energy_1> 
4.383 
 
>  <excitation_energy_2> 
4.532 
 
>  <excitation_energy_3> 
4.965 
 
>  <excitation_energy_4> 
4.983 
 
>  <homo_energy> 
-5.001 
 
>  <homo_lumo_gap> 
5.312 
 
>  <logP> 
2.531 
 
>  <lumo_energy> 
0.31 
 
>  <melting_point> 
11.33 
 
>  <molecular_refractivity> 
50.26 
 
>  <oscillator_strength_1> 
0.0317 
 
>  <oscillator_strength_2> 
0.0033 
 
>  <oscillator_strength_3> 
0.0955 
 
>  <oscillator_strength_4> 
0.0706 
 
>  <open_babel_can_smiles> 
CC(N(c1ccccc1)C)C 
 
>  <mulliken_charges> 
26 
1   -0.445314 
2   -0.440307 
3   -0.318787 
4   -0.136606 
5   -0.1368 
6   -0.137252 
7   -0.178965 
8   -0.195113 
9   0.023903 
10   0.339476 
11   -0.471677 
12   0.145201 
13   0.14342 
14   0.155991 
15   0.141828 
16   0.155125 
17   0.142803 
18   0.15499 
19   0.163788 
20   0.140702 
21   0.118301 
22   0.121731 
23   0.121613 
24   0.125853 
25   0.121479 
26   0.144617 
 
>  <lowdin_charges> 
26 
1   -0.452337 
2   -0.451663 
3   -0.355212 
4   -0.188458 
5   -0.151016 
6   -0.148496 
7   -0.199525 
8   -0.211862 
9   -0.051406 
10   0.056777 
11   -0.131622 
12   0.15226 
13   0.14837 
14   0.155106 
15   0.149956 
16   0.157036 
17   0.147471 
18   0.154822 
19   0.157299 
20   0.13315 
21   0.153692 
22   0.154616 
23   0.154072 
24   0.155375 
25   0.158186 
26   0.153411 
 
$$$$ 
 
