PCCDB-ID:  72486 
public computational chemistry database (PCCDB) project, http://pccdb.org 
 
 24 27  0  0  0  0  0  0  0  0999 V2000 
    3.6569   -0.7275    0.0009 C   0  0  0  0  0  0  0  0  0  0  0  0 
    3.6688    0.6687    0.0001 C   0  0  0  0  0  0  0  0  0  0  0  0 
    2.4460   -1.4382    0.0011 C   0  0  0  0  0  0  0  0  0  0  0  0 
    2.4702    1.4000   -0.0005 C   0  0  0  0  0  0  0  0  0  0  0  0 
   -2.9110   -1.2795   -0.0004 C   0  0  0  0  0  0  0  0  0  0  0  0 
   -2.8888    1.3324   -0.0018 C   0  0  0  0  0  0  0  0  0  0  0  0 
   -2.0722   -2.3847    0.0004 C   0  0  0  0  0  0  0  0  0  0  0  0 
   -2.0313    2.4232   -0.0025 C   0  0  0  0  0  0  0  0  0  0  0  0 
   -2.3282    0.0216   -0.0006 C   0  0  0  0  0  0  0  0  0  0  0  0 
    1.2590   -0.7219    0.0007 C   0  0  0  0  0  0  0  0  0  0  0  0 
    1.2712    0.7041   -0.0004 C   0  0  0  0  0  0  0  0  0  0  0  0 
   -0.9374    0.0098    0.0001 C   0  0  0  0  0  0  0  0  0  0  0  0 
   -0.1600   -1.1662    0.0007 C   0  0  0  0  0  0  0  0  0  0  0  0 
   -0.1401    1.1725   -0.0009 C   0  0  0  0  0  0  0  0  0  0  0  0 
   -0.6987   -2.3698    0.0009 N   0  0  0  0  0  0  0  0  0  0  0  0 
   -0.6583    2.3851   -0.0022 N   0  0  0  0  0  0  0  0  0  0  0  0 
    4.5970   -1.2722    0.0009 H   0  0  0  0  0  0  0  0  0  0  0  0 
    4.6180    1.1973    0.0008 H   0  0  0  0  0  0  0  0  0  0  0  0 
    2.4340   -2.5241    0.0016 H   0  0  0  0  0  0  0  0  0  0  0  0 
    2.4767    2.4859   -0.0018 H   0  0  0  0  0  0  0  0  0  0  0  0 
   -3.9879   -1.4207   -0.0012 H   0  0  0  0  0  0  0  0  0  0  0  0 
   -3.9631    1.4920   -0.0019 H   0  0  0  0  0  0  0  0  0  0  0  0 
   -2.5101   -3.3802    0.0006 H   0  0  0  0  0  0  0  0  0  0  0  0 
   -2.4522    3.4260   -0.0034 H   0  0  0  0  0  0  0  0  0  0  0  0 
  1 17  1  0  0  0  0 
  1  3  2  0  0  0  0 
  2 18  1  0  0  0  0 
  2  1  1  0  0  0  0 
  3 19  1  0  0  0  0 
  4 11  1  0  0  0  0 
  4  2  2  0  0  0  0 
  5  7  2  0  0  0  0 
  6  9  1  0  0  0  0 
  7 23  1  0  0  0  0 
  7 15  1  0  0  0  0 
  8 16  1  0  0  0  0 
  8  6  2  0  0  0  0 
  9  5  1  0  0  0  0 
  9 12  2  0  0  0  0 
 10 13  2  0  0  0  0 
 10  3  1  0  0  0  0 
 11 10  1  0  0  0  0 
 12 13  1  0  0  0  0 
 13 15  1  0  0  0  0 
 14 11  2  0  0  0  0 
 14 12  1  0  0  0  0 
 16 14  1  0  0  0  0 
 20  4  1  0  0  0  0 
 21  5  1  0  0  0  0 
 22  6  1  0  0  0  0 
 24  8  1  0  0  0  0 
M  RAD  2  15   2  16   2 
M  END 
>  <HBA> 
2 
 
>  <HBD> 
0 
 
>  <TPSA> 
25.78 
 
>  <cid> 
72486 
 
>  <dipole> 
1.02 
 
>  <excitation_energy_1> 
3.105 
 
>  <excitation_energy_2> 
3.445 
 
>  <excitation_energy_3> 
3.559 
 
>  <excitation_energy_4> 
4.191 
 
>  <homo_energy> 
-6.335 
 
>  <homo_lumo_gap> 
3.946 
 
>  <logP> 
3.277 
 
>  <lumo_energy> 
-2.389 
 
>  <melting_point> 
152.9 
 
>  <molecular_refractivity> 
63.97 
 
>  <oscillator_strength_1> 
0.0029 
 
>  <oscillator_strength_2> 
0.0011 
 
>  <oscillator_strength_3> 
0.155 
 
>  <oscillator_strength_4> 
0.0 
 
>  <open_babel_can_smiles> 
c1ccc2c(c1)c1[n]ccc3c1c2[n]cc3 
 
>  <mulliken_charges> 
24 
1   -0.133555 
2   -0.133651 
3   -0.190671 
4   -0.190618 
5   -0.225447 
6   -0.225629 
7   0.033815 
8   0.033851 
9   0.277521 
10   0.098636 
11   0.098362 
12   -0.018952 
13   0.225078 
14   0.225247 
15   -0.517877 
16   -0.51792 
17   0.136989 
18   0.136978 
19   0.154279 
20   0.154282 
21   0.14344 
22   0.143458 
23   0.146197 
24   0.146188 
 
>  <lowdin_charges> 
24 
1   -0.14935 
2   -0.149236 
3   -0.138168 
4   -0.138161 
5   -0.173955 
6   -0.174023 
7   -0.080944 
8   -0.080842 
9   0.024247 
10   -0.014279 
11   -0.014324 
12   -0.054304 
13   0.058352 
14   0.058336 
15   -0.145475 
16   -0.145436 
17   0.162025 
18   0.161928 
19   0.169746 
20   0.169747 
21   0.165648 
22   0.165705 
23   0.161442 
24   0.161321 
 
$$$$ 
 
