PCCDB-ID:  7343 
public computational chemistry database (PCCDB) project, http://pccdb.org 
 
 18 17  0  0  0  0  0  0  0  0999 V2000 
    4.0111   -1.3536   -2.8344 C   0  0  0  0  0  0  0  0  0  0  0  0 
    3.8509    1.8691    0.9014 C   0  0  0  0  0  0  0  0  0  0  0  0 
    5.3481    0.3662    2.2474 C   0  0  0  0  0  0  0  0  0  0  0  0 
    2.9693   -1.2533   -1.7299 C   0  0  0  0  0  0  0  0  0  0  0  0 
    4.4096    0.6702    1.1093 C   0  0  0  0  0  0  0  0  0  0  0  0 
    4.1364   -0.4838    0.1978 C   0  0  0  0  0  0  0  0  0  0  0  0 
    4.6363   -1.5830    0.3507 O   0  0  0  0  0  0  0  0  0  0  0  0 
    3.2789   -0.1848   -0.8057 O   0  0  0  0  0  0  0  0  0  0  0  0 
    3.7099   -2.1167   -3.5615 H   0  0  0  0  0  0  0  0  0  0  0  0 
    4.9827   -1.6379   -2.4211 H   0  0  0  0  0  0  0  0  0  0  0  0 
    4.1150   -0.3987   -3.3600 H   0  0  0  0  0  0  0  0  0  0  0  0 
    4.0553    2.7048    1.5656 H   0  0  0  0  0  0  0  0  0  0  0  0 
    3.1816    2.0485    0.0679 H   0  0  0  0  0  0  0  0  0  0  0  0 
    5.4990    1.2492    2.8748 H   0  0  0  0  0  0  0  0  0  0  0  0 
    6.3208    0.0282    1.8728 H   0  0  0  0  0  0  0  0  0  0  0  0 
    4.9583   -0.4471    2.8698 H   0  0  0  0  0  0  0  0  0  0  0  0 
    2.8926   -2.1902   -1.1728 H   0  0  0  0  0  0  0  0  0  0  0  0 
    1.9875   -0.9866   -2.1294 H   0  0  0  0  0  0  0  0  0  0  0  0 
  1 10  1  0  0  0  0 
  1  4  1  0  0  0  0 
  2  5  2  0  0  0  0 
  2 12  1  0  0  0  0 
  3 16  1  0  0  0  0 
  3 14  1  0  0  0  0 
  4 17  1  0  0  0  0 
  4  8  1  0  0  0  0 
  5  3  1  0  0  0  0 
  6  7  2  0  0  0  0 
  6  5  1  0  0  0  0 
  8  6  1  0  0  0  0 
  9  1  1  0  0  0  0 
 11  1  1  0  0  0  0 
 13  2  1  0  0  0  0 
 15  3  1  0  0  0  0 
 18  4  1  0  0  0  0 
M  END 
>  <HBA> 
2 
 
>  <HBD> 
0 
 
>  <TPSA> 
26.3 
 
>  <cid> 
7343 
 
>  <dipole> 
1.65 
 
>  <excitation_energy_1> 
4.8 
 
>  <excitation_energy_2> 
5.813 
 
>  <excitation_energy_3> 
6.403 
 
>  <excitation_energy_4> 
6.878 
 
>  <homo_energy> 
-7.255 
 
>  <homo_lumo_gap> 
6.24 
 
>  <logP> 
1.126 
 
>  <lumo_energy> 
-1.015 
 
>  <melting_point> 
-31.3 
 
>  <molecular_refractivity> 
31.77 
 
>  <oscillator_strength_1> 
0.0001 
 
>  <oscillator_strength_2> 
0.2072 
 
>  <oscillator_strength_3> 
0.1423 
 
>  <oscillator_strength_4> 
0.0122 
 
>  <open_babel_can_smiles> 
CCOC(=O)C(=C)C 
 
>  <mulliken_charges> 
18 
1   -0.461735 
2   -0.369466 
3   -0.499939 
4   -0.042067 
5   0.127918 
6   0.594886 
7   -0.48845 
8   -0.475628 
9   0.149516 
10   0.177189 
11   0.156309 
12   0.147506 
13   0.17135 
14   0.146562 
15   0.172316 
16   0.172595 
17   0.170155 
18   0.150982 
 
>  <lowdin_charges> 
18 
1   -0.455759 
2   -0.303498 
3   -0.436075 
4   -0.126597 
5   -0.027192 
6   0.193349 
7   -0.271919 
8   -0.194108 
9   0.159303 
10   0.165591 
11   0.155555 
12   0.163309 
13   0.1752 
14   0.155508 
15   0.168165 
16   0.169419 
17   0.158785 
18   0.150965 
 
$$$$ 
 
