PCCDB-ID:  66942 
public computational chemistry database (PCCDB) project, http://pccdb.org 
 
 30 29  0  0  0  0  0  0  0  0999 V2000 
    0.4543   -0.8419   -0.0500 C   0  0  0  0  0  0  0  0  0  0  0  0 
    7.6442   -1.4265   -4.8357 C   0  0  0  0  0  0  0  0  0  0  0  0 
    1.7201    0.2103   -2.6031 C   0  0  0  0  0  0  0  0  0  0  0  0 
    6.3095   -2.5400   -2.3495 C   0  0  0  0  0  0  0  0  0  0  0  0 
    1.9300   -0.5304   -0.3066 C   0  0  0  0  0  0  0  0  0  0  0  0 
    6.1557   -1.7056   -4.6184 C   0  0  0  0  0  0  0  0  0  0  0  0 
    3.8017   -0.7613   -1.8384 C   0  0  0  0  0  0  0  0  0  0  0  0 
    4.2625   -1.4950   -3.1078 C   0  0  0  0  0  0  0  0  0  0  0  0 
    2.3428   -0.7489   -1.6969 N   0  0  0  0  0  0  0  0  0  0  0  0 
    5.7234   -1.5327   -3.2275 N   0  0  0  0  0  0  0  0  0  0  0  0 
    0.2449   -0.7939    1.0246 H   0  0  0  0  0  0  0  0  0  0  0  0 
    0.2098   -1.8484   -0.4066 H   0  0  0  0  0  0  0  0  0  0  0  0 
   -0.2172   -0.1320   -0.5437 H   0  0  0  0  0  0  0  0  0  0  0  0 
    7.8715   -1.4321   -5.9077 H   0  0  0  0  0  0  0  0  0  0  0  0 
    8.2858   -2.1776   -4.3636 H   0  0  0  0  0  0  0  0  0  0  0  0 
    7.9108   -0.4447   -4.4297 H   0  0  0  0  0  0  0  0  0  0  0  0 
    0.6309    0.1291   -2.5549 H   0  0  0  0  0  0  0  0  0  0  0  0 
    2.0124    0.0025   -3.6360 H   0  0  0  0  0  0  0  0  0  0  0  0 
    1.9983    1.2591   -2.3742 H   0  0  0  0  0  0  0  0  0  0  0  0 
    7.4005   -2.4713   -2.3635 H   0  0  0  0  0  0  0  0  0  0  0  0 
    6.0247   -3.5733   -2.6333 H   0  0  0  0  0  0  0  0  0  0  0  0 
    5.9900   -2.3751   -1.3168 H   0  0  0  0  0  0  0  0  0  0  0  0 
    2.5357   -1.1960    0.3195 H   0  0  0  0  0  0  0  0  0  0  0  0 
    2.1537    0.5043    0.0263 H   0  0  0  0  0  0  0  0  0  0  0  0 
    5.9098   -2.7190   -4.9981 H   0  0  0  0  0  0  0  0  0  0  0  0 
    5.5807   -0.9975   -5.2266 H   0  0  0  0  0  0  0  0  0  0  0  0 
    4.2365    0.2566   -1.8381 H   0  0  0  0  0  0  0  0  0  0  0  0 
    4.2096   -1.2751   -0.9617 H   0  0  0  0  0  0  0  0  0  0  0  0 
    3.8763   -0.9688   -3.9868 H   0  0  0  0  0  0  0  0  0  0  0  0 
    3.8104   -2.5048   -3.1197 H   0  0  0  0  0  0  0  0  0  0  0  0 
  1 11  1  0  0  0  0 
  2  6  1  0  0  0  0 
  2 16  1  0  0  0  0 
  2 15  1  0  0  0  0 
  3 17  1  0  0  0  0 
  3 19  1  0  0  0  0 
  3  9  1  0  0  0  0 
  4 22  1  0  0  0  0 
  5  1  1  0  0  0  0 
  5 24  1  0  0  0  0 
  5 23  1  0  0  0  0 
  6 10  1  0  0  0  0 
  7 27  1  0  0  0  0 
  7  9  1  0  0  0  0 
  7 28  1  0  0  0  0 
  8  7  1  0  0  0  0 
  9  5  1  0  0  0  0 
 10  8  1  0  0  0  0 
 10  4  1  0  0  0  0 
 12  1  1  0  0  0  0 
 13  1  1  0  0  0  0 
 14  2  1  0  0  0  0 
 18  3  1  0  0  0  0 
 20  4  1  0  0  0  0 
 21  4  1  0  0  0  0 
 25  6  1  0  0  0  0 
 26  6  1  0  0  0  0 
 29  8  1  0  0  0  0 
 30  8  1  0  0  0  0 
M  END 
>  <HBA> 
2 
 
>  <HBD> 
0 
 
>  <TPSA> 
6.48 
 
>  <cid> 
66942 
 
>  <dipole> 
0.03 
 
>  <excitation_energy_1> 
5.342 
 
>  <excitation_energy_2> 
5.399 
 
>  <excitation_energy_3> 
5.593 
 
>  <excitation_energy_4> 
5.643 
 
>  <homo_energy> 
-5.608 
 
>  <homo_lumo_gap> 
7.859 
 
>  <logP> 
0.89 
 
>  <lumo_energy> 
2.25 
 
>  <melting_point> 
-22.62 
 
>  <molecular_refractivity> 
46.36 
 
>  <oscillator_strength_1> 
0.0217 
 
>  <oscillator_strength_2> 
0.0 
 
>  <oscillator_strength_3> 
0.0 
 
>  <oscillator_strength_4> 
0.0104 
 
>  <open_babel_can_smiles> 
CCN(CCN(CC)C)C 
 
>  <mulliken_charges> 
30 
1   -0.452462 
2   -0.452889 
3   -0.308421 
4   -0.308269 
5   -0.102789 
6   -0.103081 
7   -0.116235 
8   -0.118855 
9   -0.380153 
10   -0.380189 
11   0.141949 
12   0.155558 
13   0.14655 
14   0.14207 
15   0.146703 
16   0.155636 
17   0.152926 
18   0.1509 
19   0.116711 
20   0.153115 
21   0.117036 
22   0.150497 
23   0.135554 
24   0.107924 
25   0.107871 
26   0.135844 
27   0.120934 
28   0.131815 
29   0.131518 
30   0.122232 
 
>  <lowdin_charges> 
30 
1   -0.450376 
2   -0.45078 
3   -0.355616 
4   -0.355647 
5   -0.195711 
6   -0.196097 
7   -0.204665 
8   -0.204892 
9   -0.188842 
10   -0.18869 
11   0.150924 
12   0.154108 
13   0.149274 
14   0.151046 
15   0.149325 
16   0.154447 
17   0.149486 
18   0.148806 
19   0.118346 
20   0.149344 
21   0.118726 
22   0.148704 
23   0.144141 
24   0.113774 
25   0.114046 
26   0.144091 
27   0.122874 
28   0.143064 
29   0.142933 
30   0.123855 
 
$$$$ 
 
