PCCDB-ID:  18630 
public computational chemistry database (PCCDB) project, http://pccdb.org 
 
 15 14  0  0  0  0  0  0  0  0999 V2000 
    1.4022   -1.1223    0.6835 C   0  0  0  0  0  0  0  0  0  0  0  0 
    1.2714    1.6601   -3.0176 C   0  0  0  0  0  0  0  0  0  0  0  0 
    2.0554    0.8900   -0.7474 C   0  0  0  0  0  0  0  0  0  0  0  0 
    2.1573    0.1338    0.3714 C   0  0  0  0  0  0  0  0  0  0  0  0 
    1.1756    0.6323   -1.8963 C   0  0  0  0  0  0  0  0  0  0  0  0 
    3.0378    0.5508    1.3230 O   0  0  0  0  0  0  0  0  0  0  0  0 
    0.4040   -0.3191   -1.9995 O   0  0  0  0  0  0  0  0  0  0  0  0 
    0.7261   -1.3685   -0.1346 H   0  0  0  0  0  0  0  0  0  0  0  0 
    0.8239   -0.9943    1.6093 H   0  0  0  0  0  0  0  0  0  0  0  0 
    2.1026   -1.9544    0.8410 H   0  0  0  0  0  0  0  0  0  0  0  0 
    1.0191    2.6611   -2.6454 H   0  0  0  0  0  0  0  0  0  0  0  0 
    0.5875    1.3871   -3.8234 H   0  0  0  0  0  0  0  0  0  0  0  0 
    2.2958    1.7121   -3.4073 H   0  0  0  0  0  0  0  0  0  0  0  0 
    2.6872    1.7728   -0.7967 H   0  0  0  0  0  0  0  0  0  0  0  0 
    3.0196   -0.0692    2.0692 H   0  0  0  0  0  0  0  0  0  0  0  0 
  1 10  1  0  0  0  0 
  1  9  1  0  0  0  0 
  2 11  1  0  0  0  0 
  2  5  1  0  0  0  0 
  3  4  2  0  0  0  0 
  4  1  1  0  0  0  0 
  4  6  1  0  0  0  0 
  5  3  1  0  0  0  0 
  6 15  1  0  0  0  0 
  7  5  2  0  0  0  0 
  8  1  1  0  0  0  0 
 12  2  1  0  0  0  0 
 13  2  1  0  0  0  0 
 14  3  1  0  0  0  0 
M  END 
>  <HBA> 
2 
 
>  <HBD> 
1 
 
>  <TPSA> 
37.3 
 
>  <cid> 
18630 
 
>  <dipole> 
2.8 
 
>  <excitation_energy_1> 
3.868 
 
>  <excitation_energy_2> 
5.257 
 
>  <excitation_energy_3> 
5.479 
 
>  <excitation_energy_4> 
5.772 
 
>  <homo_energy> 
-6.348 
 
>  <homo_lumo_gap> 
5.415 
 
>  <logP> 
1.037 
 
>  <lumo_energy> 
-0.933 
 
>  <melting_point> 
19.99 
 
>  <molecular_refractivity> 
27.45 
 
>  <oscillator_strength_1> 
0.0002 
 
>  <oscillator_strength_2> 
0.2762 
 
>  <oscillator_strength_3> 
0.0004 
 
>  <oscillator_strength_4> 
0.1704 
 
>  <open_babel_can_smiles> 
C/C(=C\C(=O)C)/O 
 
>  <mulliken_charges> 
15 
1   -0.569156 
2   -0.533896 
3   -0.265489 
4   0.400869 
5   0.43881 
6   -0.596143 
7   -0.486835 
8   0.235484 
9   0.163944 
10   0.164225 
11   0.16533 
12   0.172927 
13   0.165238 
14   0.132111 
15   0.412579 
 
>  <lowdin_charges> 
15 
1   -0.477682 
2   -0.471414 
3   -0.285013 
4   0.151662 
5   0.158949 
6   -0.359005 
7   -0.279459 
8   0.204079 
9   0.164402 
10   0.165163 
11   0.166172 
12   0.16976 
13   0.165823 
14   0.166153 
15   0.360409 
 
$$$$ 
 
