PCCDB-ID:  6403 
public computational chemistry database (PCCDB) project, http://pccdb.org 
 
 20 19  0  0  0  0  0  0  0  0999 V2000 
    2.7495    0.5299    1.4290 C   0  0  0  0  0  0  0  0  0  0  0  0 
    2.4790    0.1299   -2.4709 C   0  0  0  0  0  0  0  0  0  0  0  0 
    2.4837    2.2700   -1.1646 C   0  0  0  0  0  0  0  0  0  0  0  0 
    4.5116    0.7785   -1.1552 C   0  0  0  0  0  0  0  0  0  0  0  0 
    2.3875    0.0219    0.0277 C   0  0  0  0  0  0  0  0  0  0  0  0 
    2.9708    0.8078   -1.1768 C   0  0  0  0  0  0  0  0  0  0  0  0 
    2.2853   -0.1028    2.1942 H   0  0  0  0  0  0  0  0  0  0  0  0 
    2.3998    1.5544    1.5979 H   0  0  0  0  0  0  0  0  0  0  0  0 
    3.8308    0.5138    1.6052 H   0  0  0  0  0  0  0  0  0  0  0  0 
    2.8645    0.6468   -3.3585 H   0  0  0  0  0  0  0  0  0  0  0  0 
    1.3834    0.1356   -2.5304 H   0  0  0  0  0  0  0  0  0  0  0  0 
    2.8106   -0.9148   -2.5222 H   0  0  0  0  0  0  0  0  0  0  0  0 
    2.8393    2.8056   -2.0535 H   0  0  0  0  0  0  0  0  0  0  0  0 
    2.8481    2.8149   -0.2866 H   0  0  0  0  0  0  0  0  0  0  0  0 
    1.3875    2.3225   -1.1608 H   0  0  0  0  0  0  0  0  0  0  0  0 
    4.9214    1.2727   -2.0446 H   0  0  0  0  0  0  0  0  0  0  0  0 
    4.8876   -0.2524   -1.1438 H   0  0  0  0  0  0  0  0  0  0  0  0 
    4.9182    1.2938   -0.2779 H   0  0  0  0  0  0  0  0  0  0  0  0 
    1.2922    0.0092   -0.0706 H   0  0  0  0  0  0  0  0  0  0  0  0 
    2.7088   -1.0261   -0.0610 H   0  0  0  0  0  0  0  0  0  0  0  0 
  1  8  1  0  0  0  0 
  1  9  1  0  0  0  0 
  1  7  1  0  0  0  0 
  2  6  1  0  0  0  0 
  3 15  1  0  0  0  0 
  3 14  1  0  0  0  0 
  4 17  1  0  0  0  0 
  4 18  1  0  0  0  0 
  5  1  1  0  0  0  0 
  6  3  1  0  0  0  0 
  6  4  1  0  0  0  0 
  6  5  1  0  0  0  0 
 10  2  1  0  0  0  0 
 11  2  1  0  0  0  0 
 12  2  1  0  0  0  0 
 13  3  1  0  0  0  0 
 16  4  1  0  0  0  0 
 19  5  1  0  0  0  0 
 20  5  1  0  0  0  0 
M  END 
>  <HBA> 
0 
 
>  <HBD> 
0 
 
>  <TPSA> 
0.0 
 
>  <cid> 
6403 
 
>  <dipole> 
0.04 
 
>  <excitation_energy_1> 
7.751 
 
>  <excitation_energy_2> 
7.921 
 
>  <excitation_energy_3> 
7.956 
 
>  <excitation_energy_4> 
8.251 
 
>  <homo_energy> 
-8.251 
 
>  <homo_lumo_gap> 
10.338 
 
>  <logP> 
2.442 
 
>  <lumo_energy> 
2.087 
 
>  <melting_point> 
-7.88 
 
>  <molecular_refractivity> 
30.7 
 
>  <oscillator_strength_1> 
0.0314 
 
>  <oscillator_strength_2> 
0.0439 
 
>  <oscillator_strength_3> 
0.0653 
 
>  <oscillator_strength_4> 
0.0448 
 
>  <open_babel_can_smiles> 
CCC(C)(C)C 
 
>  <mulliken_charges> 
20 
1   -0.453862 
2   -0.440314 
3   -0.444799 
4   -0.444689 
5   -0.240423 
6   0.107187 
7   0.14156 
8   0.145117 
9   0.145099 
10   0.135812 
11   0.136297 
12   0.136293 
13   0.136703 
14   0.14117 
15   0.135838 
16   0.136714 
17   0.135886 
18   0.141096 
19   0.12467 
20   0.124646 
 
>  <lowdin_charges> 
20 
1   -0.447934 
2   -0.43879 
3   -0.443811 
4   -0.445198 
5   -0.269209 
6   0.014778 
7   0.151639 
8   0.146615 
9   0.145749 
10   0.146089 
11   0.143511 
12   0.144333 
13   0.147348 
14   0.147767 
15   0.143638 
16   0.147411 
17   0.144806 
18   0.147782 
19   0.136364 
20   0.137111 
 
$$$$ 
 
