PCCDB-ID:  57241 
public computational chemistry database (PCCDB) project, http://pccdb.org 
 
 28 29  0  0  0  0  0  0  0  0999 V2000 
   -2.5614    0.6714    0.2148 C   0  0  0  0  0  0  0  0  0  0  0  0 
   -1.3154    1.1308    0.9852 C   0  0  0  0  0  0  0  0  0  0  0  0 
    2.2630   -0.5588   -0.7564 C   0  0  0  0  0  0  0  0  0  0  0  0 
    1.0590   -1.2137   -0.8900 C   0  0  0  0  0  0  0  0  0  0  0  0 
   -2.5725   -0.8536    0.0917 C   0  0  0  0  0  0  0  0  0  0  0  0 
    1.1658    1.2023    0.4855 C   0  0  0  0  0  0  0  0  0  0  0  0 
    3.1393    3.2548    1.5515 C   0  0  0  0  0  0  0  0  0  0  0  0 
    5.3592    2.9719    0.7000 C   0  0  0  0  0  0  0  0  0  0  0  0 
    4.7378    0.6992   -0.6704 C   0  0  0  0  0  0  0  0  0  0  0  0 
    2.3630    0.6744   -0.0613 C   0  0  0  0  0  0  0  0  0  0  0  0 
   -0.0519    0.5586    0.3744 C   0  0  0  0  0  0  0  0  0  0  0  0 
    4.0181    2.4769    0.7415 C   0  0  0  0  0  0  0  0  0  0  0  0 
    3.6562    1.3281    0.0458 C   0  0  0  0  0  0  0  0  0  0  0  0 
   -0.1234   -0.6756   -0.3321 C   0  0  0  0  0  0  0  0  0  0  0  0 
    2.4576    3.9180    2.2250 N   0  0  0  0  0  0  0  0  0  0  0  0 
    6.4402    3.4044    0.6894 N   0  0  0  0  0  0  0  0  0  0  0  0 
    5.5893    0.1688   -1.2583 N   0  0  0  0  0  0  0  0  0  0  0  0 
   -1.3159   -1.3176   -0.4868 N   0  0  0  0  0  0  0  0  0  0  0  0 
   -2.5659    1.1154   -0.7880 H   0  0  0  0  0  0  0  0  0  0  0  0 
   -3.4728    1.0000    0.7250 H   0  0  0  0  0  0  0  0  0  0  0  0 
   -1.4002    0.8051    2.0325 H   0  0  0  0  0  0  0  0  0  0  0  0 
   -1.2580    2.2244    1.0089 H   0  0  0  0  0  0  0  0  0  0  0  0 
    3.1497   -1.0020   -1.1964 H   0  0  0  0  0  0  0  0  0  0  0  0 
    1.0122   -2.1547   -1.4327 H   0  0  0  0  0  0  0  0  0  0  0  0 
   -3.3901   -1.1869   -0.5561 H   0  0  0  0  0  0  0  0  0  0  0  0 
   -2.7321   -1.3084    1.0818 H   0  0  0  0  0  0  0  0  0  0  0  0 
    1.1797    2.1472    1.0128 H   0  0  0  0  0  0  0  0  0  0  0  0 
   -1.3056   -2.2206   -0.9392 H   0  0  0  0  0  0  0  0  0  0  0  0 
  1 20  1  0  0  0  0 
  1  2  1  0  0  0  0 
  2 22  1  0  0  0  0 
  2 21  1  0  0  0  0 
  3 10  1  0  0  0  0 
  4  3  2  0  0  0  0 
  4 14  1  0  0  0  0 
  5  1  1  0  0  0  0 
  5 26  1  0  0  0  0 
  6 27  1  0  0  0  0 
  7 15  3  0  0  0  0 
  8 12  1  0  0  0  0 
  9 13  1  0  0  0  0 
 10 13  1  0  0  0  0 
 10  6  2  0  0  0  0 
 11  6  1  0  0  0  0 
 11  2  1  0  0  0  0 
 12  7  1  0  0  0  0 
 13 12  2  0  0  0  0 
 14 11  2  0  0  0  0 
 16  8  3  0  0  0  0 
 17  9  3  0  0  0  0 
 18 14  1  0  0  0  0 
 18  5  1  0  0  0  0 
 19  1  1  0  0  0  0 
 23  3  1  0  0  0  0 
 24  4  1  0  0  0  0 
 25  5  1  0  0  0  0 
 28 18  1  0  0  0  0 
M  END 
>  <HBA> 
4 
 
>  <HBD> 
1 
 
>  <TPSA> 
83.4 
 
>  <cid> 
57241 
 
>  <dipole> 
12.11 
 
>  <excitation_energy_1> 
2.925 
 
>  <excitation_energy_2> 
3.683 
 
>  <excitation_energy_3> 
4.387 
 
>  <excitation_energy_4> 
4.53 
 
>  <homo_energy> 
-6.049 
 
>  <homo_lumo_gap> 
2.939 
 
>  <logP> 
2.507 
 
>  <lumo_energy> 
-3.11 
 
>  <melting_point> 
184.79 
 
>  <molecular_refractivity> 
70.1 
 
>  <oscillator_strength_1> 
0.6243 
 
>  <oscillator_strength_2> 
0.0003 
 
>  <oscillator_strength_3> 
0.0549 
 
>  <oscillator_strength_4> 
0.1532 
 
>  <open_babel_can_smiles> 
N#CC(=C(C#N)C#N)c1ccc2c(c1)CCCN2 
 
>  <mulliken_charges> 
28 
1   -0.289013 
2   -0.344905 
3   -0.18379 
4   -0.197273 
5   -0.118046 
6   -0.274978 
7   0.320141 
8   0.297064 
9   0.255406 
10   0.141428 
11   0.128022 
12   0.080398 
13   0.154732 
14   0.370764 
15   -0.500898 
16   -0.471674 
17   -0.481358 
18   -0.677163 
19   0.161954 
20   0.15587 
21   0.166389 
22   0.170487 
23   0.173668 
24   0.137086 
25   0.160084 
26   0.15826 
27   0.174537 
28   0.33281 
 
>  <lowdin_charges> 
28 
1   -0.278247 
2   -0.270834 
3   -0.12768 
4   -0.197308 
5   -0.19226 
6   -0.139523 
7   0.000307 
8   -0.0073 
9   -0.003143 
10   -0.040061 
11   -0.038454 
12   -0.054921 
13   0.047455 
14   0.081247 
15   -0.107046 
16   -0.089523 
17   -0.082727 
18   -0.255863 
19   0.154301 
20   0.159988 
21   0.157802 
22   0.164085 
23   0.183572 
24   0.161836 
25   0.158726 
26   0.144788 
27   0.184114 
28   0.286669 
 
$$$$ 
 
