PCCDB-ID:  20837 
public computational chemistry database (PCCDB) project, http://pccdb.org 
 
 15 14  0  0  1  0  0  0  0  0999 V2000 
    2.9725    0.9920   -1.0056 C   0  0  0  0  0  0  0  0  0  0  0  0 
    2.6599   -0.9177    2.4071 C   0  0  0  0  0  0  0  0  0  0  0  0 
    2.5629   -0.0898   -0.0028 C   0  0  0  0  0  0  0  0  0  0  0  0 
    3.1325    0.1377    1.4053 C   0  0  2  0  0  0  0  0  0  0  0  0 
    4.5620    0.2204    1.3862 O   0  0  0  0  0  0  0  0  0  0  0  0 
    2.5884    0.7717   -2.0078 H   0  0  0  0  0  0  0  0  0  0  0  0 
    4.0622    1.0723   -1.0618 H   0  0  0  0  0  0  0  0  0  0  0  0 
    2.5833    1.9729   -0.7063 H   0  0  0  0  0  0  0  0  0  0  0  0 
    1.5684   -0.9108    2.5102 H   0  0  0  0  0  0  0  0  0  0  0  0 
    3.1035   -0.7338    3.3907 H   0  0  0  0  0  0  0  0  0  0  0  0 
    2.9562   -1.9244    2.0812 H   0  0  0  0  0  0  0  0  0  0  0  0 
    2.8987   -1.0769   -0.3588 H   0  0  0  0  0  0  0  0  0  0  0  0 
    1.4678   -0.1487    0.0643 H   0  0  0  0  0  0  0  0  0  0  0  0 
    2.8167    1.1288    1.7556 H   0  0  0  0  0  0  0  0  0  0  0  0 
    4.8938   -0.6473    1.1018 H   0  0  0  0  0  0  0  0  0  0  0  0 
  1  8  1  0  0  0  0 
  1  3  1  0  0  0  0 
  2  9  1  0  0  0  0 
  2 10  1  0  0  0  0 
  3 13  1  0  0  0  0 
  3  4  1  0  0  0  0 
  4 14  1  1  0  0  0 
  4  2  1  0  0  0  0 
  5  4  1  0  0  0  0 
  6  1  1  0  0  0  0 
  7  1  1  0  0  0  0 
 11  2  1  0  0  0  0 
 12  3  1  0  0  0  0 
 15  5  1  0  0  0  0 
M  END 
>  <HBA> 
1 
 
>  <HBD> 
1 
 
>  <TPSA> 
20.23 
 
>  <cid> 
20837 
 
>  <dipole> 
1.59 
 
>  <excitation_energy_1> 
6.65 
 
>  <excitation_energy_2> 
7.222 
 
>  <excitation_energy_3> 
7.417 
 
>  <excitation_energy_4> 
7.617 
 
>  <homo_energy> 
-7.108 
 
>  <homo_lumo_gap> 
9.072 
 
>  <logP> 
0.777 
 
>  <lumo_energy> 
1.965 
 
>  <melting_point> 
-6.62 
 
>  <molecular_refractivity> 
22.5 
 
>  <oscillator_strength_1> 
0.0175 
 
>  <oscillator_strength_2> 
0.0024 
 
>  <oscillator_strength_3> 
0.0143 
 
>  <oscillator_strength_4> 
0.0056 
 
>  <open_babel_can_smiles> 
CC[C@H](O)C 
 
>  <mulliken_charges> 
15 
1   -0.439796 
2   -0.456979 
3   -0.260538 
4   0.142949 
5   -0.617955 
6   0.138817 
7   0.158707 
8   0.141601 
9   0.142862 
10   0.158004 
11   0.130449 
12   0.117057 
13   0.131113 
14   0.134078 
15   0.379632 
 
>  <lowdin_charges> 
15 
1   -0.443291 
2   -0.457098 
3   -0.287034 
4   0.002467 
5   -0.466392 
6   0.147617 
7   0.153843 
8   0.147127 
9   0.150977 
10   0.15763 
11   0.141993 
12   0.133242 
13   0.14231 
14   0.14079 
15   0.335817 
 
$$$$ 
 
