PCCDB-ID:  61858 
public computational chemistry database (PCCDB) project, http://pccdb.org 
 
 33 32  0  0  1  0  0  0  0  0999 V2000 
    1.0162   -0.0884   -0.7937 C   0  0  0  0  0  0  0  0  0  0  0  0 
    5.3499   -2.4373   -1.0890 C   0  0  0  0  0  0  0  0  0  0  0  0 
    4.8225   -0.1740   -2.0300 C   0  0  0  0  0  0  0  0  0  0  0  0 
    2.1313   -0.0130    1.5023 C   0  0  0  0  0  0  0  0  0  0  0  0 
    1.5297    1.3095    1.9883 C   0  0  0  0  0  0  0  0  0  0  0  0 
    3.2126   -1.3118   -0.4136 C   0  0  0  0  0  0  0  0  0  0  0  0 
    5.4826   -0.3823    0.3595 C   0  0  0  0  0  0  0  0  0  0  0  0 
    0.9052    1.9457    4.3164 C   0  0  0  0  0  0  0  0  0  0  0  0 
    6.2372   -1.5242    2.4387 C   0  0  0  0  0  0  0  0  0  0  0  0 
    2.3497   -0.0768   -0.0246 C   0  0  1  0  0  0  0  0  0  0  0  0 
    4.7032   -1.0727   -0.7831 C   0  0  0  0  0  0  0  0  0  0  0  0 
    1.4507    1.3292    3.4355 N   0  0  0  0  0  0  0  0  0  0  0  0 
    5.4635   -1.1499    1.5912 N   0  0  0  0  0  0  0  0  0  0  0  0 
    0.4365    2.4625    5.2701 O   0  0  0  0  0  0  0  0  0  0  0  0 
    6.8854   -1.9497    3.3289 O   0  0  0  0  0  0  0  0  0  0  0  0 
    0.3977    0.7883   -0.5709 H   0  0  0  0  0  0  0  0  0  0  0  0 
    0.4309   -0.9822   -0.5426 H   0  0  0  0  0  0  0  0  0  0  0  0 
    1.1903   -0.0987   -1.8759 H   0  0  0  0  0  0  0  0  0  0  0  0 
    4.8393   -2.9281   -1.9254 H   0  0  0  0  0  0  0  0  0  0  0  0 
    5.2960   -3.1037   -0.2221 H   0  0  0  0  0  0  0  0  0  0  0  0 
    6.4059   -2.3219   -1.3641 H   0  0  0  0  0  0  0  0  0  0  0  0 
    4.3017   -0.6291   -2.8799 H   0  0  0  0  0  0  0  0  0  0  0  0 
    5.8717   -0.0379   -2.3198 H   0  0  0  0  0  0  0  0  0  0  0  0 
    4.3931    0.8216   -1.8703 H   0  0  0  0  0  0  0  0  0  0  0  0 
    1.4756   -0.8381    1.8124 H   0  0  0  0  0  0  0  0  0  0  0  0 
    3.0829   -0.1669    2.0228 H   0  0  0  0  0  0  0  0  0  0  0  0 
    0.5300    1.4652    1.5663 H   0  0  0  0  0  0  0  0  0  0  0  0 
    2.1582    2.1474    1.6557 H   0  0  0  0  0  0  0  0  0  0  0  0 
    2.7553   -1.8069   -1.2806 H   0  0  0  0  0  0  0  0  0  0  0  0 
    3.1763   -2.0445    0.4025 H   0  0  0  0  0  0  0  0  0  0  0  0 
    5.0439    0.6007    0.5677 H   0  0  0  0  0  0  0  0  0  0  0  0 
    6.5184   -0.2148    0.0389 H   0  0  0  0  0  0  0  0  0  0  0  0 
    2.8849    0.8380   -0.3193 H   0  0  0  0  0  0  0  0  0  0  0  0 
  1 16  1  0  0  0  0 
  1 17  1  0  0  0  0 
  1 10  1  0  0  0  0 
  2 11  1  0  0  0  0 
  2 20  1  0  0  0  0 
  3 24  1  0  0  0  0 
  3 11  1  0  0  0  0 
  4 25  1  0  0  0  0 
  4  5  1  0  0  0  0 
  4 26  1  0  0  0  0 
  5 12  1  0  0  0  0 
  6 10  1  0  0  0  0 
  6 30  1  0  0  0  0 
  7 31  1  0  0  0  0 
  7 13  1  0  0  0  0 
  8 14  2  0  0  0  0 
  9 15  2  0  0  0  0 
 10 33  1  6  0  0  0 
 10  4  1  0  0  0  0 
 11  6  1  0  0  0  0 
 11  7  1  0  0  0  0 
 12  8  2  0  0  0  0 
 13  9  2  0  0  0  0 
 18  1  1  0  0  0  0 
 19  2  1  0  0  0  0 
 21  2  1  0  0  0  0 
 22  3  1  0  0  0  0 
 23  3  1  0  0  0  0 
 27  5  1  0  0  0  0 
 28  5  1  0  0  0  0 
 29  6  1  0  0  0  0 
 32  7  1  0  0  0  0 
M  END 
>  <HBA> 
4 
 
>  <HBD> 
0 
 
>  <TPSA> 
58.86 
 
>  <cid> 
61858 
 
>  <dipole> 
5.45 
 
>  <excitation_energy_1> 
5.981 
 
>  <excitation_energy_2> 
5.989 
 
>  <excitation_energy_3> 
6.659 
 
>  <excitation_energy_4> 
6.723 
 
>  <homo_energy> 
-7.437 
 
>  <homo_lumo_gap> 
7.796 
 
>  <logP> 
2.1 
 
>  <lumo_energy> 
0.359 
 
>  <melting_point> 
90.35 
 
>  <molecular_refractivity> 
59.25 
 
>  <oscillator_strength_1> 
0.0001 
 
>  <oscillator_strength_2> 
0.0005 
 
>  <oscillator_strength_3> 
0.0206 
 
>  <oscillator_strength_4> 
0.0193 
 
>  <open_babel_can_smiles> 
O=C=NCC[C@@H](CC(CN=C=O)(C)C)C 
 
>  <mulliken_charges> 
33 
1   -0.463754 
2   -0.451393 
3   -0.45522 
4   -0.283039 
5   -0.139594 
6   -0.271986 
7   -0.138358 
8   0.599638 
9   0.597751 
10   -0.075549 
11   0.070748 
12   -0.425937 
13   -0.420688 
14   -0.414698 
15   -0.410067 
16   0.142369 
17   0.148498 
18   0.146647 
19   0.145806 
20   0.158715 
21   0.13851 
22   0.149889 
23   0.144157 
24   0.146203 
25   0.146218 
26   0.17321 
27   0.162829 
28   0.157194 
29   0.13254 
30   0.151773 
31   0.160755 
32   0.157142 
33   0.119691 
 
>  <lowdin_charges> 
33 
1   -0.446528 
2   -0.4445 
3   -0.444432 
4   -0.287124 
5   -0.16819 
6   -0.279266 
7   -0.171018 
8   0.176651 
9   0.178053 
10   -0.12878 
11   0.005956 
12   -0.183945 
13   -0.184576 
14   -0.167104 
15   -0.160382 
16   0.146529 
17   0.150172 
18   0.148738 
19   0.152659 
20   0.156923 
21   0.146219 
22   0.155369 
23   0.149036 
24   0.148193 
25   0.149667 
26   0.160562 
27   0.151426 
28   0.151089 
29   0.146541 
30   0.154075 
31   0.154052 
32   0.151328 
33   0.132607 
 
$$$$ 
 
