PCCDB-ID:  24847 
public computational chemistry database (PCCDB) project, http://pccdb.org 
 
 33 32  0  0  1  0  0  0  0  0999 V2000 
    5.2778    9.0799   -0.0141 C   0  0  0  0  0  0  0  0  0  0  0  0 
   10.0757    2.2182   -3.5418 C   0  0  0  0  0  0  0  0  0  0  0  0 
    5.6460    7.8143   -0.7954 C   0  0  0  0  0  0  0  0  0  0  0  0 
    9.0843    1.9567   -2.4026 C   0  0  0  0  0  0  0  0  0  0  0  0 
    6.3135    6.7400    0.0725 C   0  0  0  0  0  0  0  0  0  0  0  0 
    6.6909    5.4699   -0.7022 C   0  0  0  0  0  0  0  0  0  0  0  0 
    8.7615    3.2249   -1.5995 C   0  0  0  0  0  0  0  0  0  0  0  0 
    7.3422    4.3994    0.1846 C   0  0  0  0  0  0  0  0  0  0  0  0 
    8.0213    1.9870    0.5071 C   0  0  0  0  0  0  0  0  0  0  0  0 
    7.6670    3.0654   -0.5232 C   0  0  2  0  0  0  0  0  0  0  0  0 
    9.2505    2.3405    1.1397 O   0  0  0  0  0  0  0  0  0  0  0  0 
    4.8023    9.8266   -0.6605 H   0  0  0  0  0  0  0  0  0  0  0  0 
    6.1669    9.5431    0.4314 H   0  0  0  0  0  0  0  0  0  0  0  0 
    4.5803    8.8532    0.8018 H   0  0  0  0  0  0  0  0  0  0  0  0 
   10.2977    1.3007   -4.0992 H   0  0  0  0  0  0  0  0  0  0  0  0 
   11.0243    2.6115   -3.1561 H   0  0  0  0  0  0  0  0  0  0  0  0 
    9.6788    2.9527   -4.2537 H   0  0  0  0  0  0  0  0  0  0  0  0 
    6.3177    8.0788   -1.6246 H   0  0  0  0  0  0  0  0  0  0  0  0 
    4.7419    7.3949   -1.2597 H   0  0  0  0  0  0  0  0  0  0  0  0 
    9.5025    1.1913   -1.7364 H   0  0  0  0  0  0  0  0  0  0  0  0 
    8.1562    1.5352   -2.8163 H   0  0  0  0  0  0  0  0  0  0  0  0 
    5.6404    6.4748    0.9017 H   0  0  0  0  0  0  0  0  0  0  0  0 
    7.2165    7.1610    0.5393 H   0  0  0  0  0  0  0  0  0  0  0  0 
    7.3651    5.7454   -1.5243 H   0  0  0  0  0  0  0  0  0  0  0  0 
    5.7882    5.0528   -1.1746 H   0  0  0  0  0  0  0  0  0  0  0  0 
    8.4508    4.0078   -2.3036 H   0  0  0  0  0  0  0  0  0  0  0  0 
    9.6778    3.5872   -1.1158 H   0  0  0  0  0  0  0  0  0  0  0  0 
    6.6632    4.1882    1.0242 H   0  0  0  0  0  0  0  0  0  0  0  0 
    8.2613    4.7972    0.6340 H   0  0  0  0  0  0  0  0  0  0  0  0 
    8.1040    1.0054    0.0155 H   0  0  0  0  0  0  0  0  0  0  0  0 
    7.2068    1.9150    1.2469 H   0  0  0  0  0  0  0  0  0  0  0  0 
    6.7473    2.7126   -1.0189 H   0  0  0  0  0  0  0  0  0  0  0  0 
    9.4560    1.6574    1.7949 H   0  0  0  0  0  0  0  0  0  0  0  0 
  1 13  1  0  0  0  0 
  1 14  1  0  0  0  0 
  2 16  1  0  0  0  0 
  2  4  1  0  0  0  0 
  3  1  1  0  0  0  0 
  3  5  1  0  0  0  0 
  4 20  1  0  0  0  0 
  4  7  1  0  0  0  0 
  5 23  1  0  0  0  0 
  5 22  1  0  0  0  0 
  6  5  1  0  0  0  0 
  6  8  1  0  0  0  0 
  7 27  1  0  0  0  0 
  7 10  1  0  0  0  0 
  8 29  1  0  0  0  0 
  8 28  1  0  0  0  0 
  9 11  1  0  0  0  0 
  9 31  1  0  0  0  0 
 10 32  1  6  0  0  0 
 10  8  1  0  0  0  0 
 10  9  1  0  0  0  0 
 11 33  1  0  0  0  0 
 12  1  1  0  0  0  0 
 15  2  1  0  0  0  0 
 17  2  1  0  0  0  0 
 18  3  1  0  0  0  0 
 19  3  1  0  0  0  0 
 21  4  1  0  0  0  0 
 24  6  1  0  0  0  0 
 25  6  1  0  0  0  0 
 26  7  1  0  0  0  0 
 30  9  1  0  0  0  0 
M  END 
>  <HBA> 
1 
 
>  <HBD> 
1 
 
>  <TPSA> 
20.23 
 
>  <cid> 
24847 
 
>  <dipole> 
1.47 
 
>  <excitation_energy_1> 
6.27 
 
>  <excitation_energy_2> 
7.092 
 
>  <excitation_energy_3> 
7.273 
 
>  <excitation_energy_4> 
7.359 
 
>  <homo_energy> 
-7.102 
 
>  <homo_lumo_gap> 
8.996 
 
>  <logP> 
2.975 
 
>  <lumo_energy> 
1.894 
 
>  <melting_point> 
-10.6 
 
>  <molecular_refractivity> 
51.35 
 
>  <oscillator_strength_1> 
0.0 
 
>  <oscillator_strength_2> 
0.0204 
 
>  <oscillator_strength_3> 
0.0057 
 
>  <oscillator_strength_4> 
0.0033 
 
>  <open_babel_can_smiles> 
CCCCC[C@@H](CCC)CO 
 
>  <mulliken_charges> 
33 
1   -0.440998 
2   -0.442297 
3   -0.246726 
4   -0.257112 
5   -0.245619 
6   -0.260223 
7   -0.250859 
8   -0.254578 
9   -0.041623 
10   -0.094152 
11   -0.620614 
12   0.140249 
13   0.14112 
14   0.140359 
15   0.138473 
16   0.143554 
17   0.139465 
18   0.129471 
19   0.128542 
20   0.138336 
21   0.124063 
22   0.124754 
23   0.127925 
24   0.133254 
25   0.122325 
26   0.128182 
27   0.149272 
28   0.11831 
29   0.147751 
30   0.119934 
31   0.114472 
32   0.112804 
33   0.392185 
 
>  <lowdin_charges> 
33 
1   -0.446977 
2   -0.444999 
3   -0.273583 
4   -0.27607 
5   -0.275196 
6   -0.278068 
7   -0.280696 
8   -0.276096 
9   -0.136744 
10   -0.134038 
11   -0.47705 
12   0.149604 
13   0.146767 
14   0.146309 
15   0.147723 
16   0.147453 
17   0.145908 
18   0.139009 
19   0.138467 
20   0.14274 
21   0.135548 
22   0.136815 
23   0.138653 
24   0.14002 
25   0.13545 
26   0.14076 
27   0.15029 
28   0.13736 
29   0.149302 
30   0.124871 
31   0.124834 
32   0.136032 
33   0.345605 
 
$$$$ 
 
