PCCDB-ID:  7939 
public computational chemistry database (PCCDB) project, http://pccdb.org 
 
 15 15  0  0  0  0  0  0  0  0999 V2000 
    0.9215   -0.0944    0.0814 C   0  0  0  0  0  0  0  0  0  0  0  0 
    3.1338    1.1539    0.0281 C   0  0  0  0  0  0  0  0  0  0  0  0 
    4.4883    1.0981    0.0861 C   0  0  0  0  0  0  0  0  0  0  0  0 
    2.4272   -0.0999    0.1497 C   0  0  0  0  0  0  0  0  0  0  0  0 
    4.4062   -1.3343    0.3844 C   0  0  0  0  0  0  0  0  0  0  0  0 
    4.9766   -2.4705    0.5548 N   0  0  0  0  0  0  0  0  0  0  0  0 
    5.1105   -0.1015    0.2562 N   0  0  0  0  0  0  0  0  0  0  0  0 
    3.0181   -1.2504    0.3128 N   0  0  0  0  0  0  0  0  0  0  0  0 
    0.5003    0.5382    0.8731 H   0  0  0  0  0  0  0  0  0  0  0  0 
    0.5413   -1.1111    0.1920 H   0  0  0  0  0  0  0  0  0  0  0  0 
    0.5789    0.3188   -0.8759 H   0  0  0  0  0  0  0  0  0  0  0  0 
    2.6118    2.0930   -0.1055 H   0  0  0  0  0  0  0  0  0  0  0  0 
    5.1346    1.9664    0.0031 H   0  0  0  0  0  0  0  0  0  0  0  0 
    5.9953   -2.3709    0.5864 H   0  0  0  0  0  0  0  0  0  0  0  0 
    6.1204   -0.1341    0.2990 H   0  0  0  0  0  0  0  0  0  0  0  0 
  1  4  1  0  0  0  0 
  1 10  1  0  0  0  0 
  1  9  1  0  0  0  0 
  2  3  1  0  0  0  0 
  2  4  2  0  0  0  0 
  3  7  1  0  0  0  0 
  4  8  1  0  0  0  0 
  5  6  1  0  0  0  0 
  6 14  1  0  0  0  0 
  7 15  1  0  0  0  0 
  7  5  1  0  0  0  0 
  8  5  2  0  0  0  0 
 11  1  1  0  0  0  0 
 12  2  1  0  0  0  0 
 13  3  1  0  0  0  0 
M  RAD  2   3   2   6   2 
M  END 
>  <HBA> 
3 
 
>  <HBD> 
1 
 
>  <TPSA> 
51.8 
 
>  <cid> 
7939 
 
>  <dipole> 
5.68 
 
>  <excitation_energy_1> 
3.8 
 
>  <excitation_energy_2> 
4.348 
 
>  <excitation_energy_3> 
4.507 
 
>  <excitation_energy_4> 
4.958 
 
>  <homo_energy> 
-5.627 
 
>  <homo_lumo_gap> 
4.528 
 
>  <logP> 
0.948 
 
>  <lumo_energy> 
-1.099 
 
>  <melting_point> 
88.32 
 
>  <molecular_refractivity> 
31.4 
 
>  <oscillator_strength_1> 
0.0357 
 
>  <oscillator_strength_2> 
0.0017 
 
>  <oscillator_strength_3> 
0.003 
 
>  <oscillator_strength_4> 
0.0009 
 
>  <open_babel_can_smiles> 
[NH]C1=NC(=C[CH]N1)C 
 
>  <mulliken_charges> 
15 
1   -0.521821 
2   -0.217004 
3   0.117712 
4   0.332809 
5   0.587901 
6   -0.613462 
7   -0.617823 
8   -0.476282 
9   0.163641 
10   0.188408 
11   0.164023 
12   0.138965 
13   0.167331 
14   0.25368 
15   0.331921 
 
>  <lowdin_charges> 
15 
1   -0.44849 
2   -0.256446 
3   -0.054582 
4   0.090572 
5   0.114163 
6   -0.427955 
7   -0.22099 
8   -0.169611 
9   0.165623 
10   0.176459 
11   0.164847 
12   0.170528 
13   0.171756 
14   0.236028 
15   0.288097 
 
$$$$ 
 
