PCCDB-ID:  10843 
public computational chemistry database (PCCDB) project, http://pccdb.org 
 
 22 22  0  0  0  0  0  0  0  0999 V2000 
    0.8673    0.5174    0.6339 C   0  0  0  0  0  0  0  0  0  0  0  0 
    3.5304   -3.8264   -0.9968 C   0  0  0  0  0  0  0  0  0  0  0  0 
    4.4472    1.0206   -0.5923 C   0  0  0  0  0  0  0  0  0  0  0  0 
    3.1066    1.2667   -0.2860 C   0  0  0  0  0  0  0  0  0  0  0  0 
    5.0268   -0.2125   -0.3085 C   0  0  0  0  0  0  0  0  0  0  0  0 
    2.9109   -0.9694    0.5873 C   0  0  0  0  0  0  0  0  0  0  0  0 
    2.3242    0.2721    0.3118 C   0  0  0  0  0  0  0  0  0  0  0  0 
    4.5350   -3.5542    0.1024 C   0  0  0  0  0  0  0  0  0  0  0  0 
    4.2543   -1.2311    0.2737 C   0  0  0  0  0  0  0  0  0  0  0  0 
    4.8713   -2.4451    0.6156 N   0  0  0  0  0  0  0  0  0  0  0  0 
    5.1797   -4.6603    0.5768 O   0  0  0  0  0  0  0  0  0  0  0  0 
    0.6664    1.5824    0.7908 H   0  0  0  0  0  0  0  0  0  0  0  0 
    0.5592   -0.0213    1.5368 H   0  0  0  0  0  0  0  0  0  0  0  0 
    0.2146    0.1808   -0.1831 H   0  0  0  0  0  0  0  0  0  0  0  0 
    3.0930   -2.8999   -1.3697 H   0  0  0  0  0  0  0  0  0  0  0  0 
    2.7211   -4.4709   -0.6312 H   0  0  0  0  0  0  0  0  0  0  0  0 
    4.0199   -4.3460   -1.8306 H   0  0  0  0  0  0  0  0  0  0  0  0 
    5.0485    1.8031   -1.0485 H   0  0  0  0  0  0  0  0  0  0  0  0 
    2.6704    2.2395   -0.4998 H   0  0  0  0  0  0  0  0  0  0  0  0 
    6.0727   -0.4062   -0.5260 H   0  0  0  0  0  0  0  0  0  0  0  0 
    2.3275   -1.7452    1.0783 H   0  0  0  0  0  0  0  0  0  0  0  0 
    4.8706   -5.4412    0.0927 H   0  0  0  0  0  0  0  0  0  0  0  0 
  1 12  1  0  0  0  0 
  1 13  1  0  0  0  0 
  2 16  1  0  0  0  0 
  2  8  1  0  0  0  0 
  3  5  2  0  0  0  0 
  3  4  1  0  0  0  0 
  4  7  2  0  0  0  0 
  5  9  1  0  0  0  0 
  6 21  1  0  0  0  0 
  7  6  1  0  0  0  0 
  7  1  1  0  0  0  0 
  8 11  1  0  0  0  0 
  8 10  2  0  0  0  0 
  9  6  2  0  0  0  0 
  9 10  1  0  0  0  0 
 14  1  1  0  0  0  0 
 15  2  1  0  0  0  0 
 17  2  1  0  0  0  0 
 18  3  1  0  0  0  0 
 19  4  1  0  0  0  0 
 20  5  1  0  0  0  0 
 22 11  1  0  0  0  0 
M  END 
>  <HBA> 
2 
 
>  <HBD> 
1 
 
>  <TPSA> 
29.1 
 
>  <cid> 
10843 
 
>  <dipole> 
3.86 
 
>  <excitation_energy_1> 
4.738 
 
>  <excitation_energy_2> 
4.897 
 
>  <excitation_energy_3> 
4.949 
 
>  <excitation_energy_4> 
5.549 
 
>  <homo_energy> 
-5.674 
 
>  <homo_lumo_gap> 
5.676 
 
>  <logP> 
2.026 
 
>  <lumo_energy> 
0.003 
 
>  <melting_point> 
63.43 
 
>  <molecular_refractivity> 
45.72 
 
>  <oscillator_strength_1> 
0.073 
 
>  <oscillator_strength_2> 
0.035 
 
>  <oscillator_strength_3> 
0.0203 
 
>  <oscillator_strength_4> 
0.0036 
 
>  <open_babel_can_smiles> 
Cc1cccc(c1)/N=C(/O)\C 
 
>  <mulliken_charges> 
22 
1   -0.52884 
2   -0.554628 
3   -0.135506 
4   -0.183664 
5   -0.154866 
6   -0.213362 
7   0.173414 
8   0.482374 
9   0.23889 
10   -0.46319 
11   -0.570515 
12   0.156337 
13   0.156771 
14   0.160282 
15   0.198875 
16   0.17428 
17   0.170588 
18   0.125982 
19   0.115536 
20   0.129472 
21   0.114433 
22   0.407338 
 
>  <lowdin_charges> 
22 
1   -0.441835 
2   -0.486069 
3   -0.151578 
4   -0.185599 
5   -0.179638 
6   -0.202286 
7   0.005204 
8   0.146253 
9   0.050221 
10   -0.170341 
11   -0.362428 
12   0.15624 
13   0.158042 
14   0.15973 
15   0.184877 
16   0.170227 
17   0.168595 
18   0.157485 
19   0.151999 
20   0.160183 
21   0.15385 
22   0.35687 
 
$$$$ 
 
