PCCDB-ID:  50974 
public computational chemistry database (PCCDB) project, http://pccdb.org 
 
 29 28  0  0  0  0  0  0  0  0999 V2000 
    1.2670    2.8452   -0.3507 C   0  0  0  0  0  0  0  0  0  0  0  0 
    7.8486    5.4828    0.6261 C   0  0  0  0  0  0  0  0  0  0  0  0 
    4.7552    1.5864    2.0712 C   0  0  0  0  0  0  0  0  0  0  0  0 
    6.2180    1.3583    2.4700 C   0  0  0  0  0  0  0  0  0  0  0  0 
    4.5237    2.9452    1.4135 C   0  0  0  0  0  0  0  0  0  0  0  0 
    8.0176    2.9465    3.3166 C   0  0  0  0  0  0  0  0  0  0  0  0 
    2.7413    2.6045   -0.1275 C   0  0  0  0  0  0  0  0  0  0  0  0 
    7.6100    4.8855    1.9907 C   0  0  0  0  0  0  0  0  0  0  0  0 
    5.9610    2.4815    4.5696 N   0  0  0  0  0  0  0  0  0  0  0  0 
    6.7171    2.3256    3.4581 N   0  0  0  0  0  0  0  0  0  0  0  0 
    3.4845    2.0304   -0.8942 O   0  0  0  0  0  0  0  0  0  0  0  0 
    7.0335    5.4136    2.9103 O   0  0  0  0  0  0  0  0  0  0  0  0 
    6.4360    3.1855    5.4475 O   0  0  0  0  0  0  0  0  0  0  0  0 
    3.1341    3.1179    1.0637 O   0  0  0  0  0  0  0  0  0  0  0  0 
    8.1431    3.6259    2.0592 O   0  0  0  0  0  0  0  0  0  0  0  0 
    0.9917    2.5119   -1.3518 H   0  0  0  0  0  0  0  0  0  0  0  0 
    1.0306    3.9065   -0.2267 H   0  0  0  0  0  0  0  0  0  0  0  0 
    0.6842    2.2925    0.3943 H   0  0  0  0  0  0  0  0  0  0  0  0 
    7.4536    6.4987    0.6027 H   0  0  0  0  0  0  0  0  0  0  0  0 
    7.3562    4.8760   -0.1413 H   0  0  0  0  0  0  0  0  0  0  0  0 
    8.9193    5.4903    0.3984 H   0  0  0  0  0  0  0  0  0  0  0  0 
    4.1121    1.4930    2.9510 H   0  0  0  0  0  0  0  0  0  0  0  0 
    4.4773    0.7964    1.3647 H   0  0  0  0  0  0  0  0  0  0  0  0 
    6.8647    1.4555    1.5934 H   0  0  0  0  0  0  0  0  0  0  0  0 
    6.3408    0.3401    2.8601 H   0  0  0  0  0  0  0  0  0  0  0  0 
    5.1324    3.0472    0.5099 H   0  0  0  0  0  0  0  0  0  0  0  0 
    4.7425    3.7643    2.1009 H   0  0  0  0  0  0  0  0  0  0  0  0 
    8.8110    2.1950    3.2987 H   0  0  0  0  0  0  0  0  0  0  0  0 
    8.1325    3.6311    4.1561 H   0  0  0  0  0  0  0  0  0  0  0  0 
  1 17  1  0  0  0  0 
  1  7  1  0  0  0  0 
  1 18  1  0  0  0  0 
  2  8  1  0  0  0  0 
  3  4  1  0  0  0  0 
  3 22  1  0  0  0  0 
  4 25  1  0  0  0  0 
  4 10  1  0  0  0  0 
  5  3  1  0  0  0  0 
  5 27  1  0  0  0  0 
  6 10  1  0  0  0  0 
  6 29  1  0  0  0  0 
  7 14  1  0  0  0  0 
  8 15  1  0  0  0  0 
  8 12  2  0  0  0  0 
  9 13  2  0  0  0  0 
 10  9  1  0  0  0  0 
 11  7  2  0  0  0  0 
 14  5  1  0  0  0  0 
 15  6  1  0  0  0  0 
 16  1  1  0  0  0  0 
 19  2  1  0  0  0  0 
 20  2  1  0  0  0  0 
 21  2  1  0  0  0  0 
 23  3  1  0  0  0  0 
 24  4  1  0  0  0  0 
 26  5  1  0  0  0  0 
 28  6  1  0  0  0  0 
M  END 
>  <HBA> 
7 
 
>  <HBD> 
0 
 
>  <TPSA> 
85.27 
 
>  <cid> 
50974 
 
>  <dipole> 
3.22 
 
>  <excitation_energy_1> 
3.171 
 
>  <excitation_energy_2> 
5.343 
 
>  <excitation_energy_3> 
5.59 
 
>  <excitation_energy_4> 
5.669 
 
>  <homo_energy> 
-6.305 
 
>  <homo_lumo_gap> 
5.023 
 
>  <logP> 
0.444 
 
>  <lumo_energy> 
-1.282 
 
>  <melting_point> 
18.68 
 
>  <molecular_refractivity> 
50.77 
 
>  <oscillator_strength_1> 
0.0009 
 
>  <oscillator_strength_2> 
0.0124 
 
>  <oscillator_strength_3> 
0.0942 
 
>  <oscillator_strength_4> 
0.003 
 
>  <open_babel_can_smiles> 
O=NN(COC(=O)C)CCCOC(=O)C 
 
>  <mulliken_charges> 
29 
1   -0.522779 
2   -0.528041 
3   -0.294068 
4   -0.152 
5   -0.053632 
6   0.059923 
7   0.598921 
8   0.606742 
9   0.173256 
10   -0.253252 
11   -0.472651 
12   -0.445858 
13   -0.35255 
14   -0.451972 
15   -0.458641 
16   0.182467 
17   0.183807 
18   0.184821 
19   0.190608 
20   0.188926 
21   0.187765 
22   0.181249 
23   0.168096 
24   0.175151 
25   0.169624 
26   0.15767 
27   0.181044 
28   0.174048 
29   0.221327 
 
>  <lowdin_charges> 
29 
1   -0.464123 
2   -0.463063 
3   -0.295071 
4   -0.198938 
5   -0.138616 
6   -0.088541 
7   0.203762 
8   0.207 
9   0.066455 
10   -0.068495 
11   -0.271982 
12   -0.241698 
13   -0.239028 
14   -0.195469 
15   -0.209536 
16   0.175253 
17   0.177303 
18   0.181072 
19   0.179494 
20   0.182094 
21   0.179814 
22   0.165982 
23   0.165403 
24   0.16469 
25   0.157469 
26   0.152257 
27   0.165612 
28   0.162703 
29   0.188195 
 
$$$$ 
 
