PCCDB-ID:  69185 
public computational chemistry database (PCCDB) project, http://pccdb.org 
 
 19 19  0  0  0  0  0  0  0  0999 V2000 
    1.4852   -0.0768   -1.1636 C   0  0  0  0  0  0  0  0  0  0  0  0 
    4.4079    3.5563    1.0869 C   0  0  0  0  0  0  0  0  0  0  0  0 
    5.0178    2.3298    1.3555 C   0  0  0  0  0  0  0  0  0  0  0  0 
    3.1471    3.5785    0.4900 C   0  0  0  0  0  0  0  0  0  0  0  0 
    4.3736    1.1340    1.0442 C   0  0  0  0  0  0  0  0  0  0  0  0 
    2.5072    2.3847    0.1629 C   0  0  0  0  0  0  0  0  0  0  0  0 
    2.3952   -0.1090    0.0453 C   0  0  0  0  0  0  0  0  0  0  0  0 
    3.1008    1.1399    0.4426 C   0  0  0  0  0  0  0  0  0  0  0  0 
    2.4518   -1.2694    0.6040 N   0  0  0  0  0  0  0  0  0  0  0  0 
    3.2602   -1.3210    1.7550 O   0  0  0  0  0  0  0  0  0  0  0  0 
    2.0061    0.3293   -2.0384 H   0  0  0  0  0  0  0  0  0  0  0  0 
    0.6023    0.5498   -0.9876 H   0  0  0  0  0  0  0  0  0  0  0  0 
    1.1421   -1.0893   -1.3864 H   0  0  0  0  0  0  0  0  0  0  0  0 
    4.9120    4.4859    1.3378 H   0  0  0  0  0  0  0  0  0  0  0  0 
    6.0032    2.3010    1.8133 H   0  0  0  0  0  0  0  0  0  0  0  0 
    2.6613    4.5259    0.2721 H   0  0  0  0  0  0  0  0  0  0  0  0 
    4.8560    0.1906    1.2607 H   0  0  0  0  0  0  0  0  0  0  0  0 
    1.5297    2.4247   -0.3066 H   0  0  0  0  0  0  0  0  0  0  0  0 
    3.1417   -2.2428    2.0316 H   0  0  0  0  0  0  0  0  0  0  0  0 
  1 12  1  0  0  0  0 
  1  7  1  0  0  0  0 
  2 14  1  0  0  0  0 
  2  3  1  0  0  0  0 
  3 15  1  0  0  0  0 
  4  2  2  0  0  0  0 
  5 17  1  0  0  0  0 
  5  3  2  0  0  0  0 
  6  8  2  0  0  0  0 
  6  4  1  0  0  0  0 
  7  8  1  0  0  0  0 
  7  9  2  0  0  0  0 
  8  5  1  0  0  0  0 
  9 10  1  0  0  0  0 
 10 19  1  0  0  0  0 
 11  1  1  0  0  0  0 
 13  1  1  0  0  0  0 
 16  4  1  0  0  0  0 
 18  6  1  0  0  0  0 
M  END 
>  <HBA> 
2 
 
>  <HBD> 
1 
 
>  <TPSA> 
32.59 
 
>  <cid> 
69185 
 
>  <dipole> 
0.53 
 
>  <excitation_energy_1> 
4.884 
 
>  <excitation_energy_2> 
4.964 
 
>  <excitation_energy_3> 
5.202 
 
>  <excitation_energy_4> 
5.715 
 
>  <homo_energy> 
-6.196 
 
>  <homo_lumo_gap> 
5.342 
 
>  <logP> 
1.885 
 
>  <lumo_energy> 
-0.854 
 
>  <melting_point> 
78.26 
 
>  <molecular_refractivity> 
40.63 
 
>  <oscillator_strength_1> 
0.0537 
 
>  <oscillator_strength_2> 
0.2096 
 
>  <oscillator_strength_3> 
0.0279 
 
>  <oscillator_strength_4> 
0.0767 
 
>  <open_babel_can_smiles> 
O/N=C(\c1ccccc1)/C 
 
>  <mulliken_charges> 
19 
1   -0.509935 
2   -0.122621 
3   -0.136833 
4   -0.133958 
5   -0.152404 
6   -0.17864 
7   0.250586 
8   0.122581 
9   -0.234714 
10   -0.508157 
11   0.164186 
12   0.16226 
13   0.176792 
14   0.131495 
15   0.131804 
16   0.131199 
17   0.159859 
18   0.129268 
19   0.41723 
 
>  <lowdin_charges> 
19 
1   -0.441468 
2   -0.150619 
3   -0.155932 
4   -0.158848 
5   -0.143848 
6   -0.154246 
7   0.023204 
8   -0.021773 
9   -0.075163 
10   -0.376745 
11   0.162278 
12   0.160121 
13   0.170651 
14   0.158954 
15   0.157985 
16   0.158577 
17   0.174347 
18   0.158737 
19   0.353791 
 
$$$$ 
 
