PCCDB-ID:  33449 
public computational chemistry database (PCCDB) project, http://pccdb.org 
 
 51 50  0  0  0  0  0  0  0  0999 V2000 
    2.5125   -5.3765   -5.6432 C   0  0  0  0  0  0  0  0  0  0  0  0 
   13.7554    3.6951   -1.4365 C   0  0  0  0  0  0  0  0  0  0  0  0 
    3.3334   -4.9311   -4.4209 C   0  0  0  0  0  0  0  0  0  0  0  0 
   13.6170    2.2563   -1.9491 C   0  0  0  0  0  0  0  0  0  0  0  0 
    4.7338   -5.4831   -4.4232 C   0  0  0  0  0  0  0  0  0  0  0  0 
   13.0380    2.1356   -3.3697 C   0  0  0  0  0  0  0  0  0  0  0  0 
    5.8545   -4.7558   -4.4580 C   0  0  0  0  0  0  0  0  0  0  0  0 
   11.5786    2.5950   -3.5036 C   0  0  0  0  0  0  0  0  0  0  0  0 
    7.2516   -5.3177   -4.4555 C   0  0  0  0  0  0  0  0  0  0  0  0 
   11.0106    2.5049   -4.9324 C   0  0  0  0  0  0  0  0  0  0  0  0 
    8.0387   -5.0573   -3.1492 C   0  0  0  0  0  0  0  0  0  0  0  0 
   10.8899    1.0919   -5.5303 C   0  0  0  0  0  0  0  0  0  0  0  0 
    8.2369   -3.5962   -2.6985 C   0  0  0  0  0  0  0  0  0  0  0  0 
    9.9123    0.1669   -4.7910 C   0  0  0  0  0  0  0  0  0  0  0  0 
    9.2350   -2.7361   -3.5016 C   0  0  0  0  0  0  0  0  0  0  0  0 
    9.7019   -1.1757   -5.5066 C   0  0  0  0  0  0  0  0  0  0  0  0 
    8.7115   -2.1308   -4.8147 C   0  0  0  0  0  0  0  0  0  0  0  0 
    1.4895   -4.9857   -5.5956 H   0  0  0  0  0  0  0  0  0  0  0  0 
    2.4499   -6.4700   -5.7005 H   0  0  0  0  0  0  0  0  0  0  0  0 
    2.9711   -5.0215   -6.5728 H   0  0  0  0  0  0  0  0  0  0  0  0 
   14.2226    3.7165   -0.4453 H   0  0  0  0  0  0  0  0  0  0  0  0 
   12.7841    4.1950   -1.3524 H   0  0  0  0  0  0  0  0  0  0  0  0 
   14.3792    4.2950   -2.1113 H   0  0  0  0  0  0  0  0  0  0  0  0 
    2.8124   -5.2609   -3.5092 H   0  0  0  0  0  0  0  0  0  0  0  0 
    3.3700   -3.8349   -4.3778 H   0  0  0  0  0  0  0  0  0  0  0  0 
   12.9896    1.6799   -1.2538 H   0  0  0  0  0  0  0  0  0  0  0  0 
   14.6054    1.7775   -1.9322 H   0  0  0  0  0  0  0  0  0  0  0  0 
    4.8145   -6.5734   -4.4122 H   0  0  0  0  0  0  0  0  0  0  0  0 
   13.1229    1.0884   -3.6892 H   0  0  0  0  0  0  0  0  0  0  0  0 
   13.6638    2.7167   -4.0644 H   0  0  0  0  0  0  0  0  0  0  0  0 
    5.7664   -3.6680   -4.4779 H   0  0  0  0  0  0  0  0  0  0  0  0 
   11.4945    3.6393   -3.1757 H   0  0  0  0  0  0  0  0  0  0  0  0 
   10.9516    2.0131   -2.8127 H   0  0  0  0  0  0  0  0  0  0  0  0 
    7.8125   -4.9163   -5.3103 H   0  0  0  0  0  0  0  0  0  0  0  0 
    7.2015   -6.4040   -4.6084 H   0  0  0  0  0  0  0  0  0  0  0  0 
   11.6390    3.1153   -5.5970 H   0  0  0  0  0  0  0  0  0  0  0  0 
   10.0157    2.9730   -4.9429 H   0  0  0  0  0  0  0  0  0  0  0  0 
    9.0259   -5.5335   -3.2390 H   0  0  0  0  0  0  0  0  0  0  0  0 
    7.5157   -5.5876   -2.3418 H   0  0  0  0  0  0  0  0  0  0  0  0 
   11.8790    0.6148   -5.5735 H   0  0  0  0  0  0  0  0  0  0  0  0 
   10.5605    1.1893   -6.5748 H   0  0  0  0  0  0  0  0  0  0  0  0 
    8.5970   -3.6360   -1.6615 H   0  0  0  0  0  0  0  0  0  0  0  0 
    7.2661   -3.0834   -2.6511 H   0  0  0  0  0  0  0  0  0  0  0  0 
    8.9406    0.6744   -4.6909 H   0  0  0  0  0  0  0  0  0  0  0  0 
   10.2710   -0.0067   -3.7684 H   0  0  0  0  0  0  0  0  0  0  0  0 
   10.1375   -3.3301   -3.7121 H   0  0  0  0  0  0  0  0  0  0  0  0 
    9.5645   -1.9159   -2.8501 H   0  0  0  0  0  0  0  0  0  0  0  0 
   10.6711   -1.6834   -5.6249 H   0  0  0  0  0  0  0  0  0  0  0  0 
    9.3423   -0.9731   -6.5255 H   0  0  0  0  0  0  0  0  0  0  0  0 
    7.7728   -1.5918   -4.6156 H   0  0  0  0  0  0  0  0  0  0  0  0 
    8.4577   -2.9324   -5.5180 H   0  0  0  0  0  0  0  0  0  0  0  0 
  1 18  1  0  0  0  0 
  1  3  1  0  0  0  0 
  2 22  1  0  0  0  0 
  2 21  1  0  0  0  0 
  3 25  1  0  0  0  0 
  3 24  1  0  0  0  0 
  4 27  1  0  0  0  0 
  4  2  1  0  0  0  0 
  4 26  1  0  0  0  0 
  5  3  1  0  0  0  0 
  5 28  1  0  0  0  0 
  6  4  1  0  0  0  0 
  7  9  1  0  0  0  0 
  7  5  2  0  0  0  0 
  8  6  1  0  0  0  0 
  8 32  1  0  0  0  0 
  8 33  1  0  0  0  0 
  9 11  1  0  0  0  0 
 10  8  1  0  0  0  0 
 11 13  1  0  0  0  0 
 11 39  1  0  0  0  0 
 12 10  1  0  0  0  0 
 12 14  1  0  0  0  0 
 13 43  1  0  0  0  0 
 13 42  1  0  0  0  0 
 14 44  1  0  0  0  0 
 14 45  1  0  0  0  0 
 15 47  1  0  0  0  0 
 15 13  1  0  0  0  0 
 16 17  1  0  0  0  0 
 16 14  1  0  0  0  0 
 17 50  1  0  0  0  0 
 17 15  1  0  0  0  0 
 19  1  1  0  0  0  0 
 20  1  1  0  0  0  0 
 23  2  1  0  0  0  0 
 29  6  1  0  0  0  0 
 30  6  1  0  0  0  0 
 31  7  1  0  0  0  0 
 34  9  1  0  0  0  0 
 35  9  1  0  0  0  0 
 36 10  1  0  0  0  0 
 37 10  1  0  0  0  0 
 38 11  1  0  0  0  0 
 40 12  1  0  0  0  0 
 41 12  1  0  0  0  0 
 46 15  1  0  0  0  0 
 48 16  1  0  0  0  0 
 49 16  1  0  0  0  0 
 51 17  1  0  0  0  0 
M  END 
>  <HBA> 
0 
 
>  <HBD> 
0 
 
>  <TPSA> 
0.0 
 
>  <cid> 
33449 
 
>  <dipole> 
0.08 
 
>  <excitation_energy_1> 
5.999 
 
>  <excitation_energy_2> 
6.235 
 
>  <excitation_energy_3> 
6.333 
 
>  <excitation_energy_4> 
6.346 
 
>  <homo_energy> 
-6.387 
 
>  <homo_lumo_gap> 
7.187 
 
>  <logP> 
6.654 
 
>  <lumo_energy> 
0.8 
 
>  <melting_point> 
-24.08 
 
>  <molecular_refractivity> 
83.36 
 
>  <oscillator_strength_1> 
0.076 
 
>  <oscillator_strength_2> 
0.0097 
 
>  <oscillator_strength_3> 
0.0231 
 
>  <oscillator_strength_4> 
0.0011 
 
>  <open_babel_can_smiles> 
CCCCCCCCCCCCC/C=C/CC 
 
>  <mulliken_charges> 
51 
1   -0.438496 
2   -0.442921 
3   -0.294956 
4   -0.248451 
5   -0.089088 
6   -0.250281 
7   -0.097197 
8   -0.257252 
9   -0.309598 
10   -0.258106 
11   -0.25076 
12   -0.255739 
13   -0.261812 
14   -0.256952 
15   -0.255153 
16   -0.255502 
17   -0.261744 
18   0.141708 
19   0.142502 
20   0.149246 
21   0.141177 
22   0.14616 
23   0.140082 
24   0.140086 
25   0.136882 
26   0.128543 
27   0.129485 
28   0.112111 
29   0.131258 
30   0.12441 
31   0.118653 
32   0.131317 
33   0.129908 
34   0.143649 
35   0.1336 
36   0.125784 
37   0.125371 
38   0.125861 
39   0.13318 
40   0.131522 
41   0.126266 
42   0.12886 
43   0.132412 
44   0.124888 
45   0.137606 
46   0.124943 
47   0.132385 
48   0.126078 
49   0.126779 
50   0.125431 
51   0.135869 
 
>  <lowdin_charges> 
51 
1   -0.439989 
2   -0.448167 
3   -0.2668 
4   -0.273599 
5   -0.165906 
6   -0.278199 
7   -0.170188 
8   -0.280823 
9   -0.275341 
10   -0.276646 
11   -0.274257 
12   -0.276143 
13   -0.278881 
14   -0.277819 
15   -0.279701 
16   -0.27419 
17   -0.280684 
18   0.147776 
19   0.14501 
20   0.150349 
21   0.148749 
22   0.146808 
23   0.146922 
24   0.146926 
25   0.142596 
26   0.139497 
27   0.140553 
28   0.1407 
29   0.139342 
30   0.137676 
31   0.1429 
32   0.140681 
33   0.139096 
34   0.14629 
35   0.144112 
36   0.141044 
37   0.138719 
38   0.13825 
39   0.144334 
40   0.137947 
41   0.138541 
42   0.142808 
43   0.140391 
44   0.13607 
45   0.138496 
46   0.137011 
47   0.142142 
48   0.137163 
49   0.138967 
50   0.136093 
51   0.143373 
 
$$$$ 
 
