PCCDB-ID:  49299 
public computational chemistry database (PCCDB) project, http://pccdb.org 
 
 35 35  0  0  1  0  0  0  0  0999 V2000 
    3.0903    2.1692   -3.0466 C   0  0  0  0  0  0  0  0  0  0  0  0 
    3.8240    0.0579   -1.8722 C   0  0  0  0  0  0  0  0  0  0  0  0 
    4.8496    1.1636    3.4012 C   0  0  0  0  0  0  0  0  0  0  0  0 
    6.3882    3.0654    3.8748 C   0  0  0  0  0  0  0  0  0  0  0  0 
    4.3134    2.3589   -0.8502 C   0  0  0  0  0  0  0  0  0  0  0  0 
    4.4544    1.8893    0.6056 C   0  0  0  0  0  0  0  0  0  0  0  0 
    3.3360    1.5030   -1.6844 C   0  0  0  0  0  0  0  0  0  0  0  0 
    5.4950    2.2537    2.9608 C   0  0  0  0  0  0  0  0  0  0  0  0 
    4.8484    4.2014    1.5366 C   0  0  0  0  0  0  0  0  0  0  0  0 
    6.7769    2.8239    0.8915 C   0  0  0  0  0  0  0  0  0  0  0  0 
    6.4807    4.9763    0.0855 C   0  0  0  0  0  0  0  0  0  0  0  0 
    5.3806    2.7674    1.5133 C   0  0  2  0  0  0  0  0  0  0  0  0 
    5.3317    5.1881    0.8970 N   0  0  0  0  0  0  0  0  0  0  0  0 
    7.2693    3.8039    0.2484 N   0  0  0  0  0  0  0  0  0  0  0  0 
    3.7414    4.4042    2.2812 O   0  0  0  0  0  0  0  0  0  0  0  0 
    7.5207    1.7048    1.0170 O   0  0  0  0  0  0  0  0  0  0  0  0 
    6.8062    5.8119   -0.7257 O   0  0  0  0  0  0  0  0  0  0  0  0 
    2.3711    1.5946   -3.6417 H   0  0  0  0  0  0  0  0  0  0  0  0 
    4.0211    2.2380   -3.6236 H   0  0  0  0  0  0  0  0  0  0  0  0 
    2.6957    3.1849   -2.9296 H   0  0  0  0  0  0  0  0  0  0  0  0 
    3.1200   -0.5122   -2.4890 H   0  0  0  0  0  0  0  0  0  0  0  0 
    3.9284   -0.4773   -0.9213 H   0  0  0  0  0  0  0  0  0  0  0  0 
    4.7988    0.0384   -2.3766 H   0  0  0  0  0  0  0  0  0  0  0  0 
    4.9574    0.8383    4.4325 H   0  0  0  0  0  0  0  0  0  0  0  0 
    4.2018    0.5599    2.7751 H   0  0  0  0  0  0  0  0  0  0  0  0 
    6.4098    2.6399    4.8816 H   0  0  0  0  0  0  0  0  0  0  0  0 
    6.0430    4.1036    3.9495 H   0  0  0  0  0  0  0  0  0  0  0  0 
    7.4170    3.1020    3.4968 H   0  0  0  0  0  0  0  0  0  0  0  0 
    5.2953    2.3570   -1.3418 H   0  0  0  0  0  0  0  0  0  0  0  0 
    3.9628    3.3981   -0.8642 H   0  0  0  0  0  0  0  0  0  0  0  0 
    4.8410    0.8646    0.6281 H   0  0  0  0  0  0  0  0  0  0  0  0 
    3.4592    1.8568    1.0672 H   0  0  0  0  0  0  0  0  0  0  0  0 
    2.3746    1.4713   -1.1478 H   0  0  0  0  0  0  0  0  0  0  0  0 
    3.5364    3.5910    2.7764 H   0  0  0  0  0  0  0  0  0  0  0  0 
    7.0565    1.0760    1.5981 H   0  0  0  0  0  0  0  0  0  0  0  0 
  1 20  1  0  0  0  0 
  1  7  1  0  0  0  0 
  2  7  1  0  0  0  0 
  2 22  1  0  0  0  0 
  3 24  1  0  0  0  0 
  4 27  1  0  0  0  0 
  4 26  1  0  0  0  0 
  5  6  1  0  0  0  0 
  6 31  1  0  0  0  0 
  6 32  1  0  0  0  0 
  6 12  1  0  0  0  0 
  7 33  1  0  0  0  0 
  7  5  1  0  0  0  0 
  8  3  2  0  0  0  0 
  8  4  1  0  0  0  0 
  9 15  1  0  0  0  0 
 10 16  1  0  0  0  0 
 10 12  1  0  0  0  0 
 11 14  1  0  0  0  0 
 11 13  2  0  0  0  0 
 12  9  1  0  0  0  0 
 12  8  1  1  0  0  0 
 13  9  2  0  0  0  0 
 14 10  2  0  0  0  0 
 15 34  1  0  0  0  0 
 16 35  1  0  0  0  0 
 17 11  2  0  0  0  0 
 18  1  1  0  0  0  0 
 19  1  1  0  0  0  0 
 21  2  1  0  0  0  0 
 23  2  1  0  0  0  0 
 25  3  1  0  0  0  0 
 28  4  1  0  0  0  0 
 29  5  1  0  0  0  0 
 30  5  1  0  0  0  0 
M  END 
>  <HBA> 
5 
 
>  <HBD> 
2 
 
>  <TPSA> 
75.27 
 
>  <cid> 
49299 
 
>  <dipole> 
9.5 
 
>  <excitation_energy_1> 
4.022 
 
>  <excitation_energy_2> 
4.243 
 
>  <excitation_energy_3> 
5.016 
 
>  <excitation_energy_4> 
5.347 
 
>  <homo_energy> 
-6.89 
 
>  <homo_lumo_gap> 
5.396 
 
>  <logP> 
2.009 
 
>  <lumo_energy> 
-1.494 
 
>  <melting_point> 
122.4 
 
>  <molecular_refractivity> 
71.37 
 
>  <oscillator_strength_1> 
0.0005 
 
>  <oscillator_strength_2> 
0.0002 
 
>  <oscillator_strength_3> 
0.0319 
 
>  <oscillator_strength_4> 
0.0041 
 
>  <open_babel_can_smiles> 
CC(CC[C@@]1(C(=C)C)C(=N[C](=[N]=C1O)=O)O)C 
 
>  <mulliken_charges> 
35 
1   -0.446278 
2   -0.448484 
3   -0.410415 
4   -0.52551 
5   -0.283412 
6   -0.280674 
7   -0.071902 
8   0.127563 
9   0.544108 
10   0.545509 
11   0.617936 
12   -0.175224 
13   -0.469568 
14   -0.469634 
15   -0.578709 
16   -0.579059 
17   -0.429655 
18   0.14345 
19   0.150205 
20   0.151327 
21   0.149006 
22   0.134025 
23   0.149501 
24   0.163845 
25   0.1642 
26   0.168291 
27   0.190411 
28   0.190062 
29   0.162885 
30   0.164993 
31   0.149594 
32   0.145442 
33   0.121302 
34   0.417178 
35   0.417693 
 
>  <lowdin_charges> 
35 
1   -0.443969 
2   -0.449237 
3   -0.354409 
4   -0.448331 
5   -0.285732 
6   -0.268646 
7   -0.118294 
8   -0.022769 
9   0.145911 
10   0.145954 
11   0.175063 
12   -0.062067 
13   -0.184728 
14   -0.184806 
15   -0.330629 
16   -0.331514 
17   -0.209018 
18   0.151624 
19   0.151841 
20   0.152576 
21   0.15478 
22   0.142295 
23   0.150487 
24   0.169899 
25   0.170298 
26   0.165934 
27   0.174312 
28   0.174307 
29   0.155724 
30   0.157219 
31   0.148776 
32   0.147809 
33   0.133908 
34   0.361875 
35   0.363558 
 
$$$$ 
 
