PCCDB-ID:  20832 
public computational chemistry database (PCCDB) project, http://pccdb.org 
 
 27 27  0  0  0  0  0  0  0  0999 V2000 
    3.7680    0.4773    1.1024 C   0  0  0  0  0  0  0  0  0  0  0  0 
    1.2793    0.7284    0.6184 C   0  0  0  0  0  0  0  0  0  0  0  0 
    3.8080    1.1147   -5.5754 C   0  0  0  0  0  0  0  0  0  0  0  0 
    3.1317    3.0673   -1.0064 C   0  0  0  0  0  0  0  0  0  0  0  0 
    3.2908   -0.3913   -3.5975 C   0  0  0  0  0  0  0  0  0  0  0  0 
    3.0102   -0.5639   -2.2426 C   0  0  0  0  0  0  0  0  0  0  0  0 
    3.4518    1.9594   -3.2147 C   0  0  0  0  0  0  0  0  0  0  0  0 
    2.6236    0.1627    0.1180 C   0  0  0  0  0  0  0  0  0  0  0  0 
    3.5168    0.8855   -4.1104 C   0  0  0  0  0  0  0  0  0  0  0  0 
    3.1710    1.8093   -1.8512 C   0  0  0  0  0  0  0  0  0  0  0  0 
    2.9414    0.5065   -1.3407 C   0  0  0  0  0  0  0  0  0  0  0  0 
    3.5508    0.0358    2.0828 H   0  0  0  0  0  0  0  0  0  0  0  0 
    3.9055    1.5521    1.2548 H   0  0  0  0  0  0  0  0  0  0  0  0 
    4.7177    0.0623    0.7477 H   0  0  0  0  0  0  0  0  0  0  0  0 
    1.0291    0.2927    1.5935 H   0  0  0  0  0  0  0  0  0  0  0  0 
    0.4677    0.4887   -0.0773 H   0  0  0  0  0  0  0  0  0  0  0  0 
    1.3043    1.8149    0.7461 H   0  0  0  0  0  0  0  0  0  0  0  0 
    3.9397    0.1675   -6.1083 H   0  0  0  0  0  0  0  0  0  0  0  0 
    4.7192    1.7085   -5.7173 H   0  0  0  0  0  0  0  0  0  0  0  0 
    2.9912    1.6596   -6.0663 H   0  0  0  0  0  0  0  0  0  0  0  0 
    3.3516    3.9444   -1.6230 H   0  0  0  0  0  0  0  0  0  0  0  0 
    3.8671    3.0494   -0.1954 H   0  0  0  0  0  0  0  0  0  0  0  0 
    2.1503    3.2316   -0.5490 H   0  0  0  0  0  0  0  0  0  0  0  0 
    3.3339   -1.2573   -4.2544 H   0  0  0  0  0  0  0  0  0  0  0  0 
    2.8392   -1.5716   -1.8694 H   0  0  0  0  0  0  0  0  0  0  0  0 
    3.6292    2.9648   -3.5942 H   0  0  0  0  0  0  0  0  0  0  0  0 
    2.5105   -0.9295    0.1347 H   0  0  0  0  0  0  0  0  0  0  0  0 
  1 13  1  0  0  0  0 
  1 12  1  0  0  0  0 
  2 17  1  0  0  0  0 
  2 15  1  0  0  0  0 
  3  9  1  0  0  0  0 
  4 23  1  0  0  0  0 
  4 22  1  0  0  0  0 
  5  6  1  0  0  0  0 
  6 25  1  0  0  0  0 
  6 11  2  0  0  0  0 
  7 10  2  0  0  0  0 
  8 27  1  0  0  0  0 
  8  2  1  0  0  0  0 
  8  1  1  0  0  0  0 
  9  5  2  0  0  0  0 
  9  7  1  0  0  0  0 
 10 11  1  0  0  0  0 
 10  4  1  0  0  0  0 
 11  8  1  0  0  0  0 
 14  1  1  0  0  0  0 
 16  2  1  0  0  0  0 
 18  3  1  0  0  0  0 
 19  3  1  0  0  0  0 
 20  3  1  0  0  0  0 
 21  4  1  0  0  0  0 
 24  5  1  0  0  0  0 
 26  7  1  0  0  0  0 
M  END 
>  <HBA> 
0 
 
>  <HBD> 
0 
 
>  <TPSA> 
0.0 
 
>  <cid> 
20832 
 
>  <dipole> 
0.22 
 
>  <excitation_energy_1> 
5.11 
 
>  <excitation_energy_2> 
5.666 
 
>  <excitation_energy_3> 
5.695 
 
>  <excitation_energy_4> 
5.997 
 
>  <homo_energy> 
-6.063 
 
>  <homo_lumo_gap> 
6.28 
 
>  <logP> 
3.427 
 
>  <lumo_energy> 
0.218 
 
>  <melting_point> 
15.5 
 
>  <molecular_refractivity> 
50.95 
 
>  <oscillator_strength_1> 
0.0027 
 
>  <oscillator_strength_2> 
0.0502 
 
>  <oscillator_strength_3> 
0.001 
 
>  <oscillator_strength_4> 
0.004 
 
>  <open_babel_can_smiles> 
Cc1ccc(c(c1)C)C(C)C 
 
>  <mulliken_charges> 
27 
1   -0.446124 
2   -0.446155 
3   -0.530896 
4   -0.542594 
5   -0.182539 
6   -0.1993 
7   -0.241427 
8   -0.154401 
9   0.19023 
10   0.128809 
11   0.128649 
12   0.139835 
13   0.145442 
14   0.149026 
15   0.139828 
16   0.148932 
17   0.145411 
18   0.15299 
19   0.158506 
20   0.161241 
21   0.151855 
22   0.163104 
23   0.163283 
24   0.116493 
25   0.119221 
26   0.110432 
27   0.13015 
 
>  <lowdin_charges> 
27 
1   -0.443364 
2   -0.443987 
3   -0.44346 
4   -0.44664 
5   -0.175834 
6   -0.166931 
7   -0.176312 
8   -0.115219 
9   -0.001786 
10   -0.004645 
11   -0.016054 
12   0.147692 
13   0.145705 
14   0.152545 
15   0.147807 
16   0.153241 
17   0.145526 
18   0.155696 
19   0.158787 
20   0.160695 
21   0.155475 
22   0.15928 
23   0.158605 
24   0.152835 
25   0.150687 
26   0.148077 
27   0.141581 
 
$$$$ 
 
