PCCDB-ID:  12342 
public computational chemistry database (PCCDB) project, http://pccdb.org 
 
 10  9  0  0  0  0  0  0  0  0999 V2000 
    1.2622   -0.0299    0.0272 C   0  0  0  0  0  0  0  0  0  0  0  0 
   -1.6409    0.5148   -1.5461 C   0  0  0  0  0  0  0  0  0  0  0  0 
    0.4837    0.3985   -0.8886 N   0  0  0  0  0  0  0  0  0  0  0  0 
   -0.8628    0.0894   -0.6286 N   0  0  0  0  0  0  0  0  0  0  0  0 
    2.5908    0.1643   -0.0349 O   0  0  0  0  0  0  0  0  0  0  0  0 
   -2.9695    0.3200   -1.4844 O   0  0  0  0  0  0  0  0  0  0  0  0 
    0.9520   -0.5742    0.9180 H   0  0  0  0  0  0  0  0  0  0  0  0 
   -1.3306    1.0569   -2.4382 H   0  0  0  0  0  0  0  0  0  0  0  0 
    2.7634    0.6553   -0.8607 H   0  0  0  0  0  0  0  0  0  0  0  0 
   -3.1424   -0.1687   -0.6573 H   0  0  0  0  0  0  0  0  0  0  0  0 
  1  7  1  0  0  0  0 
  2  6  1  0  0  0  0 
  2  4  1  0  0  0  0 
  3  4  1  0  0  0  0 
  3  1  1  0  0  0  0 
  5  1  1  0  0  0  0 
  6 10  1  0  0  0  0 
  8  2  1  0  0  0  0 
  9  5  1  0  0  0  0 
M  RAD  4   1   2   2   2   3   2   4   2 
M  END 
>  <HBA> 
4 
 
>  <HBD> 
2 
 
>  <TPSA> 
58.2 
 
>  <cid> 
12342 
 
>  <dipole> 
0.0 
 
>  <excitation_energy_1> 
5.201 
 
>  <excitation_energy_2> 
5.876 
 
>  <excitation_energy_3> 
5.928 
 
>  <excitation_energy_4> 
6.022 
 
>  <homo_energy> 
-6.264 
 
>  <homo_lumo_gap> 
6.155 
 
>  <logP> 
0.447 
 
>  <lumo_energy> 
-0.109 
 
>  <melting_point> 
73.23 
 
>  <molecular_refractivity> 
18.51 
 
>  <oscillator_strength_1> 
0.0002 
 
>  <oscillator_strength_2> 
0.0 
 
>  <oscillator_strength_3> 
0.3502 
 
>  <oscillator_strength_4> 
0.0 
 
>  <open_babel_can_smiles> 
O[CH][N][N][CH]O 
 
>  <mulliken_charges> 
10 
1   0.311821 
2   0.311811 
3   -0.328789 
4   -0.328781 
5   -0.557462 
6   -0.557458 
7   0.162738 
8   0.162738 
9   0.411691 
10   0.411692 
 
>  <lowdin_charges> 
10 
1   0.009637 
2   0.00964 
3   -0.176916 
4   -0.176912 
5   -0.3487 
6   -0.348688 
7   0.155467 
8   0.155462 
9   0.36051 
10   0.360499 
 
$$$$ 
 
