PCCDB-ID:  51985 
public computational chemistry database (PCCDB) project, http://pccdb.org 
 
 29 28  0  0  0  0  0  0  0  0999 V2000 
    3.6220   -2.0971    3.0845 C   0  0  0  0  0  0  0  0  0  0  0  0 
    1.3168   -1.7161    2.1399 C   0  0  0  0  0  0  0  0  0  0  0  0 
    4.6377   -1.0889   -0.6447 C   0  0  0  0  0  0  0  0  0  0  0  0 
    4.5283    1.3559   -0.0536 C   0  0  0  0  0  0  0  0  0  0  0  0 
    7.9899   -0.4227    2.0062 C   0  0  0  0  0  0  0  0  0  0  0  0 
    7.0069   -0.1114    0.9567 C   0  0  0  0  0  0  0  0  0  0  0  0 
    3.2032   -0.2801    1.2990 C   0  0  0  0  0  0  0  0  0  0  0  0 
    2.8253   -1.6797    1.8385 C   0  0  0  0  0  0  0  0  0  0  0  0 
    4.5311   -0.0833    0.5161 C   0  0  0  0  0  0  0  0  0  0  0  0 
    8.7662   -0.6420    2.8403 N   0  0  0  0  0  0  0  0  0  0  0  0 
    5.6507   -0.3094    1.4642 N   0  0  0  0  0  0  0  0  0  0  0  0 
    3.3054   -3.0887    3.4303 H   0  0  0  0  0  0  0  0  0  0  0  0 
    3.4463   -1.3919    3.9090 H   0  0  0  0  0  0  0  0  0  0  0  0 
    4.6953   -2.1222    2.8852 H   0  0  0  0  0  0  0  0  0  0  0  0 
    1.0164   -2.6992    2.5208 H   0  0  0  0  0  0  0  0  0  0  0  0 
    0.7191   -1.5051    1.2447 H   0  0  0  0  0  0  0  0  0  0  0  0 
    1.0501   -0.9717    2.9019 H   0  0  0  0  0  0  0  0  0  0  0  0 
    3.7151   -1.0833   -1.2350 H   0  0  0  0  0  0  0  0  0  0  0  0 
    4.8047   -2.1041   -0.2737 H   0  0  0  0  0  0  0  0  0  0  0  0 
    5.4567   -0.8356   -1.3277 H   0  0  0  0  0  0  0  0  0  0  0  0 
    3.6944    1.5014   -0.7496 H   0  0  0  0  0  0  0  0  0  0  0  0 
    5.4499    1.5786   -0.6033 H   0  0  0  0  0  0  0  0  0  0  0  0 
    4.4251    2.0955    0.7503 H   0  0  0  0  0  0  0  0  0  0  0  0 
    7.1830   -0.7962    0.1200 H   0  0  0  0  0  0  0  0  0  0  0  0 
    7.2312    0.9042    0.5848 H   0  0  0  0  0  0  0  0  0  0  0  0 
    3.1901    0.4344    2.1380 H   0  0  0  0  0  0  0  0  0  0  0  0 
    2.4023    0.0497    0.6234 H   0  0  0  0  0  0  0  0  0  0  0  0 
    3.0176   -2.4190    1.0489 H   0  0  0  0  0  0  0  0  0  0  0  0 
    5.5159    0.2815    2.2832 H   0  0  0  0  0  0  0  0  0  0  0  0 
  1 12  1  0  0  0  0 
  1 13  1  0  0  0  0 
  2 15  1  0  0  0  0 
  2 17  1  0  0  0  0 
  3 19  1  0  0  0  0 
  3  9  1  0  0  0  0 
  4  9  1  0  0  0  0 
  4 23  1  0  0  0  0 
  5 10  3  0  0  0  0 
  6 11  1  0  0  0  0 
  6  5  1  0  0  0  0 
  7  8  1  0  0  0  0 
  7 26  1  0  0  0  0 
  8  2  1  0  0  0  0 
  8  1  1  0  0  0  0 
  9  7  1  0  0  0  0 
  9 11  1  0  0  0  0 
 11 29  1  0  0  0  0 
 14  1  1  0  0  0  0 
 16  2  1  0  0  0  0 
 18  3  1  0  0  0  0 
 20  3  1  0  0  0  0 
 21  4  1  0  0  0  0 
 22  4  1  0  0  0  0 
 24  6  1  0  0  0  0 
 25  6  1  0  0  0  0 
 27  7  1  0  0  0  0 
 28  8  1  0  0  0  0 
M  END 
>  <HBA> 
2 
 
>  <HBD> 
1 
 
>  <TPSA> 
35.82 
 
>  <cid> 
51985 
 
>  <dipole> 
4.38 
 
>  <excitation_energy_1> 
5.518 
 
>  <excitation_energy_2> 
5.994 
 
>  <excitation_energy_3> 
6.209 
 
>  <excitation_energy_4> 
6.351 
 
>  <homo_energy> 
-6.504 
 
>  <homo_lumo_gap> 
7.154 
 
>  <logP> 
2.315 
 
>  <lumo_energy> 
0.65 
 
>  <melting_point> 
43.55 
 
>  <molecular_refractivity> 
47.97 
 
>  <oscillator_strength_1> 
0.0036 
 
>  <oscillator_strength_2> 
0.008 
 
>  <oscillator_strength_3> 
0.0065 
 
>  <oscillator_strength_4> 
0.0077 
 
>  <open_babel_can_smiles> 
N#CCNC(CC(C)C)(C)C 
 
>  <mulliken_charges> 
29 
1   -0.451192 
2   -0.443501 
3   -0.464926 
4   -0.458303 
5   0.347436 
6   -0.178235 
7   -0.268789 
8   -0.065884 
9   0.220564 
10   -0.471007 
11   -0.5614 
12   0.134229 
13   0.127271 
14   0.176931 
15   0.142559 
16   0.136177 
17   0.13861 
18   0.150026 
19   0.167107 
20   0.140297 
21   0.14916 
22   0.141959 
23   0.140414 
24   0.197965 
25   0.170082 
26   0.119546 
27   0.13019 
28   0.125874 
29   0.306838 
 
>  <lowdin_charges> 
29 
1   -0.452717 
2   -0.445442 
3   -0.450944 
4   -0.460945 
5   -0.016916 
6   -0.198629 
7   -0.278764 
8   -0.120492 
9   0.0664 
10   -0.120089 
11   -0.345647 
12   0.144914 
13   0.140596 
14   0.161715 
15   0.149002 
16   0.144966 
17   0.145771 
18   0.156965 
19   0.159603 
20   0.147994 
21   0.155487 
22   0.147516 
23   0.148826 
24   0.181311 
25   0.153995 
26   0.137899 
27   0.146723 
28   0.139545 
29   0.261358 
 
$$$$ 
 
