PCCDB-ID:  10706 
public computational chemistry database (PCCDB) project, http://pccdb.org 
 
 20 20  0  0  0  0  0  0  0  0999 V2000 
    1.7389   -0.8965    1.0276 C   0  0  0  0  0  0  0  0  0  0  0  0 
    3.7482    0.6659   -1.8916 C   0  0  0  0  0  0  0  0  0  0  0  0 
    4.4345    0.3854   -3.0637 C   0  0  0  0  0  0  0  0  0  0  0  0 
    2.4333    0.1096    0.1311 C   0  0  0  0  0  0  0  0  0  0  0  0 
    3.1429   -0.3378   -1.1120 C   0  0  0  0  0  0  0  0  0  0  0  0 
    4.5306   -0.9427   -3.4914 C   0  0  0  0  0  0  0  0  0  0  0  0 
    3.2530   -1.6705   -1.5586 C   0  0  0  0  0  0  0  0  0  0  0  0 
    3.9422   -1.9583   -2.7436 C   0  0  0  0  0  0  0  0  0  0  0  0 
    2.4160    1.2994    0.4210 O   0  0  0  0  0  0  0  0  0  0  0  0 
    5.1800   -1.3584   -4.6273 O   0  0  0  0  0  0  0  0  0  0  0  0 
    2.7085   -2.7132   -0.8723 O   0  0  0  0  0  0  0  0  0  0  0  0 
    4.0045   -3.2805   -3.1202 O   0  0  0  0  0  0  0  0  0  0  0  0 
    2.4475   -1.6401    1.4070 H   0  0  0  0  0  0  0  0  0  0  0  0 
    0.9751   -1.4548    0.4763 H   0  0  0  0  0  0  0  0  0  0  0  0 
    1.2823   -0.3541    1.8579 H   0  0  0  0  0  0  0  0  0  0  0  0 
    3.6558    1.6852   -1.5340 H   0  0  0  0  0  0  0  0  0  0  0  0 
    4.8928    1.1807   -3.6472 H   0  0  0  0  0  0  0  0  0  0  0  0 
    5.5776   -0.5946   -5.0722 H   0  0  0  0  0  0  0  0  0  0  0  0 
    2.9263   -3.5250   -1.3652 H   0  0  0  0  0  0  0  0  0  0  0  0 
    4.5472   -3.3384   -3.9241 H   0  0  0  0  0  0  0  0  0  0  0  0 
  1 13  1  0  0  0  0 
  1 15  1  0  0  0  0 
  2 16  1  0  0  0  0 
  2  5  2  0  0  0  0 
  3  2  1  0  0  0  0 
  4  9  2  0  0  0  0 
  4  1  1  0  0  0  0 
  5  4  1  0  0  0  0 
  6  3  2  0  0  0  0 
  6  8  1  0  0  0  0 
  7  5  1  0  0  0  0 
  7 11  1  0  0  0  0 
  8  7  2  0  0  0  0 
 10  6  1  0  0  0  0 
 12  8  1  0  0  0  0 
 14  1  1  0  0  0  0 
 17  3  1  0  0  0  0 
 18 10  1  0  0  0  0 
 19 11  1  0  0  0  0 
 20 12  1  0  0  0  0 
M  END 
>  <HBA> 
4 
 
>  <HBD> 
3 
 
>  <TPSA> 
77.76 
 
>  <cid> 
10706 
 
>  <dipole> 
5.0 
 
>  <excitation_energy_1> 
3.893 
 
>  <excitation_energy_2> 
4.282 
 
>  <excitation_energy_3> 
4.75 
 
>  <excitation_energy_4> 
4.827 
 
>  <homo_energy> 
-5.965 
 
>  <homo_lumo_gap> 
4.947 
 
>  <logP> 
1.006 
 
>  <lumo_energy> 
-1.018 
 
>  <melting_point> 
161.14 
 
>  <molecular_refractivity> 
42.71 
 
>  <oscillator_strength_1> 
0.0001 
 
>  <oscillator_strength_2> 
0.0343 
 
>  <oscillator_strength_3> 
0.0012 
 
>  <oscillator_strength_4> 
0.2174 
 
>  <open_babel_can_smiles> 
CC(=O)c1ccc(c(c1O)O)O 
 
>  <mulliken_charges> 
20 
1   -0.517462 
2   -0.18917 
3   -0.189839 
4   0.406013 
5   0.048174 
6   0.314189 
7   0.247508 
8   0.26541 
9   -0.465987 
10   -0.674274 
11   -0.657216 
12   -0.691326 
13   0.174507 
14   0.17404 
15   0.165697 
16   0.167403 
17   0.126706 
18   0.42291 
19   0.435822 
20   0.436897 
 
>  <lowdin_charges> 
20 
1   -0.473373 
2   -0.124481 
3   -0.223289 
4   0.165745 
5   -0.092169 
6   0.077222 
7   0.093019 
8   0.026084 
9   -0.259232 
10   -0.392439 
11   -0.36464 
12   -0.402435 
13   0.174484 
14   0.174259 
15   0.167155 
16   0.180558 
17   0.160018 
18   0.370074 
19   0.369879 
20   0.373563 
 
$$$$ 
 
