PCCDB-ID:  17602 
public computational chemistry database (PCCDB) project, http://pccdb.org 
 
 18 17  0  0  0  0  0  0  0  0999 V2000 
    1.2043    0.3540    0.2174 C   0  0  0  0  0  0  0  0  0  0  0  0 
    6.3904   -1.0371   -3.4198 C   0  0  0  0  0  0  0  0  0  0  0  0 
    2.7239    0.1663    0.1554 C   0  0  0  0  0  0  0  0  0  0  0  0 
    3.1835   -0.1833   -1.2638 C   0  0  0  0  0  0  0  0  0  0  0  0 
    5.6554    0.8502   -1.0497 O   0  0  0  0  0  0  0  0  0  0  0  0 
    5.3554   -1.6157   -0.5764 O   0  0  0  0  0  0  0  0  0  0  0  0 
    5.0609   -0.7380   -2.9359 O   0  0  0  0  0  0  0  0  0  0  0  0 
    4.9737   -0.4159   -1.3234 S   0  0  0  0  0  0  0  0  0  0  0  0 
    0.8894    0.6014    1.2365 H   0  0  0  0  0  0  0  0  0  0  0  0 
    0.6761   -0.5586   -0.0833 H   0  0  0  0  0  0  0  0  0  0  0  0 
    0.8743    1.1662   -0.4409 H   0  0  0  0  0  0  0  0  0  0  0  0 
    6.2716   -1.2088   -4.4901 H   0  0  0  0  0  0  0  0  0  0  0  0 
    6.7794   -1.9357   -2.9330 H   0  0  0  0  0  0  0  0  0  0  0  0 
    7.0590   -0.1891   -3.2463 H   0  0  0  0  0  0  0  0  0  0  0  0 
    3.0339   -0.6329    0.8382 H   0  0  0  0  0  0  0  0  0  0  0  0 
    3.2314    1.0815    0.4805 H   0  0  0  0  0  0  0  0  0  0  0  0 
    2.9567    0.6132   -1.9784 H   0  0  0  0  0  0  0  0  0  0  0  0 
    2.7444   -1.1193   -1.6208 H   0  0  0  0  0  0  0  0  0  0  0  0 
  1  9  1  0  0  0  0 
  2 14  1  0  0  0  0 
  2  7  1  0  0  0  0 
  2 13  1  0  0  0  0 
  3  1  1  0  0  0  0 
  3 16  1  0  0  0  0 
  3 15  1  0  0  0  0 
  4  3  1  0  0  0  0 
  7  8  1  0  0  0  0 
  8  4  1  0  0  0  0 
  8  5  1  0  0  0  0 
  8  6  1  0  0  0  0 
 10  1  1  0  0  0  0 
 11  1  1  0  0  0  0 
 12  2  1  0  0  0  0 
 17  4  1  0  0  0  0 
 18  4  1  0  0  0  0 
M  RAD  2   5   2   6   2 
M  END 
>  <HBA> 
3 
 
>  <HBD> 
0 
 
>  <TPSA> 
51.75 
 
>  <cid> 
17602 
 
>  <dipole> 
2.93 
 
>  <excitation_energy_1> 
7.085 
 
>  <excitation_energy_2> 
7.433 
 
>  <excitation_energy_3> 
7.712 
 
>  <excitation_energy_4> 
7.824 
 
>  <homo_energy> 
-7.804 
 
>  <homo_lumo_gap> 
9.034 
 
>  <logP> 
1.453 
 
>  <lumo_energy> 
1.23 
 
>  <melting_point> 
-2.2 
 
>  <molecular_refractivity> 
31.39 
 
>  <oscillator_strength_1> 
0.0037 
 
>  <oscillator_strength_2> 
0.0106 
 
>  <oscillator_strength_3> 
0.0007 
 
>  <oscillator_strength_4> 
0.1014 
 
>  <open_babel_can_smiles> 
CCCS(OC)([O])[O] 
 
>  <mulliken_charges> 
18 
1   -0.448655 
2   -0.23616 
3   -0.282748 
4   -0.46353 
5   -0.515855 
6   -0.518113 
7   -0.532655 
8   1.222611 
9   0.161433 
10   0.151603 
11   0.151598 
12   0.179758 
13   0.185312 
14   0.184609 
15   0.17638 
16   0.176842 
17   0.204002 
18   0.203568 
 
>  <lowdin_charges> 
18 
1   -0.441712 
2   -0.279785 
3   -0.277248 
4   -0.417003 
5   -0.581718 
6   -0.582869 
7   -0.424238 
8   1.337628 
9   0.159472 
10   0.152136 
11   0.15261 
12   0.168245 
13   0.165995 
14   0.166015 
15   0.164112 
16   0.163842 
17   0.1877 
18   0.186818 
 
$$$$ 
 
