PCCDB-ID:  11264 
public computational chemistry database (PCCDB) project, http://pccdb.org 
 
 21 20  0  0  1  0  0  0  0  0999 V2000 
    2.8503   -1.3102    0.3956 C   0  0  0  0  0  0  0  0  0  0  0  0 
    2.8338    2.7007   -2.7470 C   0  0  0  0  0  0  0  0  0  0  0  0 
    0.8943    2.4466   -1.1522 C   0  0  0  0  0  0  0  0  0  0  0  0 
    2.4345    0.1542    0.2233 C   0  0  0  0  0  0  0  0  0  0  0  0 
    2.3989    2.2068   -1.3586 C   0  0  0  0  0  0  0  0  0  0  0  0 
    2.8045    0.7288   -1.1536 C   0  0  1  0  0  0  0  0  0  0  0  0 
    4.2047    0.5487   -1.4093 O   0  0  0  0  0  0  0  0  0  0  0  0 
    2.6164   -1.6706    1.4035 H   0  0  0  0  0  0  0  0  0  0  0  0 
    3.9229   -1.4340    0.2222 H   0  0  0  0  0  0  0  0  0  0  0  0 
    2.3241   -1.9534   -0.3203 H   0  0  0  0  0  0  0  0  0  0  0  0 
    2.6285    3.7711   -2.8630 H   0  0  0  0  0  0  0  0  0  0  0  0 
    2.2858    2.1689   -3.5359 H   0  0  0  0  0  0  0  0  0  0  0  0 
    3.9005    2.5286   -2.9112 H   0  0  0  0  0  0  0  0  0  0  0  0 
    0.6388    3.4882   -1.3781 H   0  0  0  0  0  0  0  0  0  0  0  0 
    0.5720    2.2460   -0.1254 H   0  0  0  0  0  0  0  0  0  0  0  0 
    0.3007    1.8108   -1.8223 H   0  0  0  0  0  0  0  0  0  0  0  0 
    2.9106    0.7727    1.0015 H   0  0  0  0  0  0  0  0  0  0  0  0 
    1.3536    0.2485    0.3802 H   0  0  0  0  0  0  0  0  0  0  0  0 
    2.9432    2.7956   -0.6001 H   0  0  0  0  0  0  0  0  0  0  0  0 
    2.3148    0.1256   -1.9310 H   0  0  0  0  0  0  0  0  0  0  0  0 
    4.6832    1.0562   -0.7325 H   0  0  0  0  0  0  0  0  0  0  0  0 
  1  8  1  0  0  0  0 
  2  5  1  0  0  0  0 
  3 15  1  0  0  0  0 
  4 18  1  0  0  0  0 
  4  1  1  0  0  0  0 
  4 17  1  0  0  0  0 
  5  6  1  0  0  0  0 
  5  3  1  0  0  0  0 
  5 19  1  0  0  0  0 
  6 20  1  6  0  0  0 
  6  4  1  0  0  0  0 
  7  6  1  0  0  0  0 
  7 21  1  0  0  0  0 
  9  1  1  0  0  0  0 
 10  1  1  0  0  0  0 
 11  2  1  0  0  0  0 
 12  2  1  0  0  0  0 
 13  2  1  0  0  0  0 
 14  3  1  0  0  0  0 
 16  3  1  0  0  0  0 
M  END 
>  <HBA> 
1 
 
>  <HBD> 
1 
 
>  <TPSA> 
20.23 
 
>  <cid> 
11264 
 
>  <dipole> 
1.57 
 
>  <excitation_energy_1> 
6.455 
 
>  <excitation_energy_2> 
7.012 
 
>  <excitation_energy_3> 
7.219 
 
>  <excitation_energy_4> 
7.343 
 
>  <homo_energy> 
-7.061 
 
>  <homo_lumo_gap> 
9.012 
 
>  <logP> 
1.413 
 
>  <lumo_energy> 
1.951 
 
>  <melting_point> 
-7.94 
 
>  <molecular_refractivity> 
32.12 
 
>  <oscillator_strength_1> 
0.003 
 
>  <oscillator_strength_2> 
0.0091 
 
>  <oscillator_strength_3> 
0.0058 
 
>  <oscillator_strength_4> 
0.0023 
 
>  <open_babel_can_smiles> 
CC[C@@H](C(C)C)O 
 
>  <mulliken_charges> 
21 
1   -0.438029 
2   -0.439649 
3   -0.453878 
4   -0.276774 
5   -0.088142 
6   0.152204 
7   -0.623153 
8   0.137864 
9   0.15744 
10   0.141843 
11   0.134851 
12   0.137275 
13   0.158303 
14   0.144408 
15   0.146182 
16   0.141778 
17   0.116765 
18   0.138897 
19   0.105158 
20   0.126326 
21   0.38033 
 
>  <lowdin_charges> 
21 
1   -0.444544 
2   -0.444577 
3   -0.446992 
4   -0.290781 
5   -0.137986 
6   -0.003733 
7   -0.463604 
8   0.147098 
9   0.153287 
10   0.149086 
11   0.144022 
12   0.146913 
13   0.155791 
14   0.150523 
15   0.14824 
16   0.148622 
17   0.134777 
18   0.146155 
19   0.129511 
20   0.140266 
21   0.337928 
 
$$$$ 
 
