PCCDB-ID:  41519 
public computational chemistry database (PCCDB) project, http://pccdb.org 
 
 33 33  0  0  0  0  0  0  0  0999 V2000 
    0.9782    0.1783    0.1009 C   0  0  0  0  0  0  0  0  0  0  0  0 
    5.3363    2.6396   -0.1760 C   0  0  0  0  0  0  0  0  0  0  0  0 
    2.4116   -2.4268    0.0171 C   0  0  0  0  0  0  0  0  0  0  0  0 
    6.8223    0.1505   -0.2636 C   0  0  0  0  0  0  0  0  0  0  0  0 
    5.3256   -2.4529   -0.1334 C   0  0  0  0  0  0  0  0  0  0  0  0 
    5.6220   -2.9398   -1.5768 C   0  0  0  0  0  0  0  0  0  0  0  0 
    3.2191    1.2939   -0.0387 C   0  0  0  0  0  0  0  0  0  0  0  0 
    2.4876    0.1048    0.0060 C   0  0  0  0  0  0  0  0  0  0  0  0 
    4.6096    1.3155   -0.1238 C   0  0  0  0  0  0  0  0  0  0  0  0 
    3.1802   -1.1195   -0.0352 C   0  0  0  0  0  0  0  0  0  0  0  0 
    5.3113    0.0937   -0.1607 C   0  0  0  0  0  0  0  0  0  0  0  0 
    4.5935   -1.1199   -0.1040 C   0  0  0  0  0  0  0  0  0  0  0  0 
    6.2405   -4.3301   -1.5997 C   0  0  0  0  0  0  0  0  0  0  0  0 
    5.6762   -5.3257   -1.9762 O   0  0  0  0  0  0  0  0  0  0  0  0 
    7.5138   -4.4159   -1.1129 O   0  0  0  0  0  0  0  0  0  0  0  0 
    0.6476    1.2201    0.1552 H   0  0  0  0  0  0  0  0  0  0  0  0 
    0.5947   -0.3349    0.9913 H   0  0  0  0  0  0  0  0  0  0  0  0 
    0.4856   -0.2767   -0.7678 H   0  0  0  0  0  0  0  0  0  0  0  0 
    4.6301    3.4739   -0.1273 H   0  0  0  0  0  0  0  0  0  0  0  0 
    5.9189    2.7528   -1.0999 H   0  0  0  0  0  0  0  0  0  0  0  0 
    6.0430    2.7545    0.6562 H   0  0  0  0  0  0  0  0  0  0  0  0 
    1.3467   -2.2760   -0.1675 H   0  0  0  0  0  0  0  0  0  0  0  0 
    2.5007   -2.9122    0.9991 H   0  0  0  0  0  0  0  0  0  0  0  0 
    2.7640   -3.1494   -0.7264 H   0  0  0  0  0  0  0  0  0  0  0  0 
    7.2623    0.6814    0.5907 H   0  0  0  0  0  0  0  0  0  0  0  0 
    7.1377    0.6959   -1.1625 H   0  0  0  0  0  0  0  0  0  0  0  0 
    7.2928   -0.8330   -0.3053 H   0  0  0  0  0  0  0  0  0  0  0  0 
    6.2600   -2.3885    0.4347 H   0  0  0  0  0  0  0  0  0  0  0  0 
    4.7339   -3.2202    0.3721 H   0  0  0  0  0  0  0  0  0  0  0  0 
    6.2858   -2.2241   -2.0803 H   0  0  0  0  0  0  0  0  0  0  0  0 
    4.6965   -2.9864   -2.1546 H   0  0  0  0  0  0  0  0  0  0  0  0 
    2.6822    2.2400   -0.0053 H   0  0  0  0  0  0  0  0  0  0  0  0 
    7.8368   -3.5335   -0.8677 H   0  0  0  0  0  0  0  0  0  0  0  0 
  1 16  1  0  0  0  0 
  1 17  1  0  0  0  0 
  2 19  1  0  0  0  0 
  2  9  1  0  0  0  0 
  2 21  1  0  0  0  0 
  3 23  1  0  0  0  0 
  4 11  1  0  0  0  0 
  4 25  1  0  0  0  0 
  5 12  1  0  0  0  0 
  5 29  1  0  0  0  0 
  5 28  1  0  0  0  0 
  6  5  1  0  0  0  0 
  7 32  1  0  0  0  0 
  7  8  2  0  0  0  0 
  8  1  1  0  0  0  0 
  9  7  1  0  0  0  0 
 10  8  1  0  0  0  0 
 10  3  1  0  0  0  0 
 11  9  2  0  0  0  0 
 11 12  1  0  0  0  0 
 12 10  2  0  0  0  0 
 13  6  1  0  0  0  0 
 13 15  1  0  0  0  0 
 14 13  2  0  0  0  0 
 15 33  1  0  0  0  0 
 18  1  1  0  0  0  0 
 20  2  1  0  0  0  0 
 22  3  1  0  0  0  0 
 24  3  1  0  0  0  0 
 26  4  1  0  0  0  0 
 27  4  1  0  0  0  0 
 30  6  1  0  0  0  0 
 31  6  1  0  0  0  0 
M  END 
>  <HBA> 
2 
 
>  <HBD> 
1 
 
>  <TPSA> 
37.3 
 
>  <cid> 
41519 
 
>  <dipole> 
4.58 
 
>  <excitation_energy_1> 
4.971 
 
>  <excitation_energy_2> 
5.177 
 
>  <excitation_energy_3> 
5.347 
 
>  <excitation_energy_4> 
5.446 
 
>  <homo_energy> 
-6.155 
 
>  <homo_lumo_gap> 
6.071 
 
>  <logP> 
2.937 
 
>  <lumo_energy> 
-0.084 
 
>  <melting_point> 
102.34 
 
>  <molecular_refractivity> 
62.66 
 
>  <oscillator_strength_1> 
0.0064 
 
>  <oscillator_strength_2> 
0.0003 
 
>  <oscillator_strength_3> 
0.0023 
 
>  <oscillator_strength_4> 
0.0312 
 
>  <open_babel_can_smiles> 
OC(=O)CCc1c(C)c(C)cc(c1C)C 
 
>  <mulliken_charges> 
33 
1   -0.542697 
2   -0.535959 
3   -0.551738 
4   -0.529678 
5   -0.383781 
6   -0.376649 
7   -0.252772 
8   0.146947 
9   0.148671 
10   0.071584 
11   0.070027 
12   0.067778 
13   0.589354 
14   -0.435161 
15   -0.565111 
16   0.155118 
17   0.161245 
18   0.162454 
19   0.15664 
20   0.157372 
21   0.1576 
22   0.160127 
23   0.164912 
24   0.168023 
25   0.164225 
26   0.162768 
27   0.128065 
28   0.14355 
29   0.171279 
30   0.158623 
31   0.185363 
32   0.113201 
33   0.408621 
 
>  <lowdin_charges> 
33 
1   -0.444415 
2   -0.44198 
3   -0.449914 
4   -0.446325 
5   -0.277947 
6   -0.316721 
7   -0.178063 
8   -0.009932 
9   -0.010407 
10   -0.01938 
11   -0.021823 
12   -0.024738 
13   0.196673 
14   -0.238204 
15   -0.364289 
16   0.15565 
17   0.159336 
18   0.159489 
19   0.15823 
20   0.156963 
21   0.15755 
22   0.160755 
23   0.160064 
24   0.16244 
25   0.161814 
26   0.16063 
27   0.1448 
28   0.145472 
29   0.165152 
30   0.159005 
31   0.174799 
32   0.150454 
33   0.354865 
 
$$$$ 
 
