PCCDB-ID:  61926 
public computational chemistry database (PCCDB) project, http://pccdb.org 
 
 15 14  0  0  0  0  0  0  0  0999 V2000 
    2.0875   -2.2929    1.4680 C   0  0  0  0  0  0  0  0  0  0  0  0 
    7.3602    0.0599    1.8387 C   0  0  0  0  0  0  0  0  0  0  0  0 
    2.3046   -1.1217    0.8660 C   0  0  0  0  0  0  0  0  0  0  0  0 
    2.6692   -0.9850   -0.5760 C   0  0  0  0  0  0  0  0  0  0  0  0 
    6.0281   -1.1980    1.9233 S   0  0  0  0  0  0  0  0  0  0  0  0 
    4.3384   -0.2094   -0.8678 S   0  0  0  0  0  0  0  0  0  0  0  0 
    5.6787   -1.6164   -0.0970 S   0  0  0  0  0  0  0  0  0  0  0  0 
    1.8251   -2.3516    2.5205 H   0  0  0  0  0  0  0  0  0  0  0  0 
    2.1634   -3.2351    0.9300 H   0  0  0  0  0  0  0  0  0  0  0  0 
    7.6539    0.2620    2.8739 H   0  0  0  0  0  0  0  0  0  0  0  0 
    6.9905    0.9816    1.3833 H   0  0  0  0  0  0  0  0  0  0  0  0 
    8.2213   -0.3187    1.2840 H   0  0  0  0  0  0  0  0  0  0  0  0 
    2.2377   -0.1954    1.4348 H   0  0  0  0  0  0  0  0  0  0  0  0 
    1.9990   -0.2903   -1.0996 H   0  0  0  0  0  0  0  0  0  0  0  0 
    2.6388   -1.9463   -1.0958 H   0  0  0  0  0  0  0  0  0  0  0  0 
  1  8  1  0  0  0  0 
  2  5  1  0  0  0  0 
  2 10  1  0  0  0  0 
  3 13  1  0  0  0  0 
  3  1  2  0  0  0  0 
  4  3  1  0  0  0  0 
  6  4  1  0  0  0  0 
  6  7  1  0  0  0  0 
  7  5  1  0  0  0  0 
  9  1  1  0  0  0  0 
 11  2  1  0  0  0  0 
 12  2  1  0  0  0  0 
 14  4  1  0  0  0  0 
 15  4  1  0  0  0  0 
M  END 
>  <HBA> 
3 
 
>  <HBD> 
0 
 
>  <TPSA> 
75.9 
 
>  <cid> 
61926 
 
>  <dipole> 
1.13 
 
>  <excitation_energy_1> 
4.199 
 
>  <excitation_energy_2> 
4.349 
 
>  <excitation_energy_3> 
4.501 
 
>  <excitation_energy_4> 
4.911 
 
>  <homo_energy> 
-6.555 
 
>  <homo_lumo_gap> 
5.282 
 
>  <logP> 
2.832 
 
>  <lumo_energy> 
-1.274 
 
>  <melting_point> 
-18.92 
 
>  <molecular_refractivity> 
43.64 
 
>  <oscillator_strength_1> 
0.0107 
 
>  <oscillator_strength_2> 
0.0164 
 
>  <oscillator_strength_3> 
0.0075 
 
>  <oscillator_strength_4> 
0.004 
 
>  <open_babel_can_smiles> 
CSSSCC=C 
 
>  <mulliken_charges> 
15 
1   -0.323307 
2   -0.589488 
3   -0.02755 
4   -0.466287 
5   0.041441 
6   0.025114 
7   -0.06504 
8   0.150263 
9   0.146168 
10   0.188369 
11   0.197176 
12   0.196119 
13   0.146067 
14   0.189555 
15   0.1914 
 
>  <lowdin_charges> 
15 
1   -0.320837 
2   -0.551175 
3   -0.151373 
4   -0.371922 
5   0.045284 
6   0.026855 
7   -0.034344 
8   0.16315 
9   0.159838 
10   0.177211 
11   0.173281 
12   0.174226 
13   0.161309 
14   0.178356 
15   0.170142 
 
$$$$ 
 
