PCCDB-ID:  11702 
public computational chemistry database (PCCDB) project, http://pccdb.org 
 
 24 23  0  0  0  0  0  0  0  0999 V2000 
    2.5589    1.4703   -0.1942 C   0  0  0  0  0  0  0  0  0  0  0  0 
    2.6759   -3.3394   -2.1516 C   0  0  0  0  0  0  0  0  0  0  0  0 
    1.0315   -0.1492   -3.2004 C   0  0  0  0  0  0  0  0  0  0  0  0 
    2.0560    0.0234   -0.2176 C   0  0  0  0  0  0  0  0  0  0  0  0 
    2.1151   -2.3101   -1.1652 C   0  0  0  0  0  0  0  0  0  0  0  0 
    2.4830   -0.3029   -2.7344 C   0  0  0  0  0  0  0  0  0  0  0  0 
    2.6752   -0.8748   -1.3160 C   0  0  0  0  0  0  0  0  0  0  0  0 
    4.1084   -0.9039   -1.1550 O   0  0  0  0  0  0  0  0  0  0  0  0 
    2.1946    1.9919    0.6979 H   0  0  0  0  0  0  0  0  0  0  0  0 
    2.2170    2.0368   -1.0674 H   0  0  0  0  0  0  0  0  0  0  0  0 
    3.6530    1.4974   -0.1859 H   0  0  0  0  0  0  0  0  0  0  0  0 
    2.3442   -4.3496   -1.8865 H   0  0  0  0  0  0  0  0  0  0  0  0 
    3.7703   -3.3235   -2.1439 H   0  0  0  0  0  0  0  0  0  0  0  0 
    2.3456   -3.1447   -3.1778 H   0  0  0  0  0  0  0  0  0  0  0  0 
    1.0004    0.2518   -4.2196 H   0  0  0  0  0  0  0  0  0  0  0  0 
    0.4650    0.5384   -2.5619 H   0  0  0  0  0  0  0  0  0  0  0  0 
    0.5001   -1.1077   -3.2103 H   0  0  0  0  0  0  0  0  0  0  0  0 
    0.9621    0.0062   -0.3080 H   0  0  0  0  0  0  0  0  0  0  0  0 
    2.2775   -0.4480    0.7526 H   0  0  0  0  0  0  0  0  0  0  0  0 
    2.3379   -2.6407   -0.1387 H   0  0  0  0  0  0  0  0  0  0  0  0 
    1.0197   -2.2826   -1.2322 H   0  0  0  0  0  0  0  0  0  0  0  0 
    2.9908    0.6672   -2.7737 H   0  0  0  0  0  0  0  0  0  0  0  0 
    3.0288   -0.9499   -3.4301 H   0  0  0  0  0  0  0  0  0  0  0  0 
    4.2909   -1.2560   -0.2683 H   0  0  0  0  0  0  0  0  0  0  0  0 
  1 11  1  0  0  0  0 
  1  9  1  0  0  0  0 
  2 13  1  0  0  0  0 
  2 12  1  0  0  0  0 
  2  5  1  0  0  0  0 
  3  6  1  0  0  0  0 
  3 16  1  0  0  0  0 
  4  1  1  0  0  0  0 
  4 19  1  0  0  0  0 
  5 20  1  0  0  0  0 
  6  7  1  0  0  0  0 
  7  5  1  0  0  0  0 
  7  8  1  0  0  0  0 
  7  4  1  0  0  0  0 
  8 24  1  0  0  0  0 
 10  1  1  0  0  0  0 
 14  2  1  0  0  0  0 
 15  3  1  0  0  0  0 
 17  3  1  0  0  0  0 
 18  4  1  0  0  0  0 
 21  5  1  0  0  0  0 
 22  6  1  0  0  0  0 
 23  6  1  0  0  0  0 
M  END 
>  <HBA> 
1 
 
>  <HBD> 
1 
 
>  <TPSA> 
20.23 
 
>  <cid> 
11702 
 
>  <dipole> 
1.38 
 
>  <excitation_energy_1> 
6.376 
 
>  <excitation_energy_2> 
7.016 
 
>  <excitation_energy_3> 
7.27 
 
>  <excitation_energy_4> 
7.29 
 
>  <homo_energy> 
-7.031 
 
>  <homo_lumo_gap> 
8.8 
 
>  <logP> 
1.948 
 
>  <lumo_energy> 
1.769 
 
>  <melting_point> 
2.41 
 
>  <molecular_refractivity> 
36.96 
 
>  <oscillator_strength_1> 
0.0043 
 
>  <oscillator_strength_2> 
0.0 
 
>  <oscillator_strength_3> 
0.0012 
 
>  <oscillator_strength_4> 
0.0008 
 
>  <open_babel_can_smiles> 
CCC(CC)(CC)O 
 
>  <mulliken_charges> 
24 
1   -0.450282 
2   -0.450313 
3   -0.460141 
4   -0.270513 
5   -0.270104 
6   -0.269261 
7   0.318011 
8   -0.645172 
9   0.138552 
10   0.146315 
11   0.157987 
12   0.138596 
13   0.157998 
14   0.146372 
15   0.146529 
16   0.14644 
17   0.146416 
18   0.133622 
19   0.114802 
20   0.114778 
21   0.133426 
22   0.147501 
23   0.147463 
24   0.380978 
 
>  <lowdin_charges> 
24 
1   -0.448999 
2   -0.445956 
3   -0.449422 
4   -0.286652 
5   -0.285845 
6   -0.281785 
7   0.117511 
8   -0.463108 
9   0.149696 
10   0.148811 
11   0.153381 
12   0.148433 
13   0.153362 
14   0.147235 
15   0.152549 
16   0.149042 
17   0.147611 
18   0.142449 
19   0.134544 
20   0.133791 
21   0.142255 
22   0.151832 
23   0.153461 
24   0.335804 
 
$$$$ 
 
