PCCDB-ID:  58649 
public computational chemistry database (PCCDB) project, http://pccdb.org 
 
 29 30  0  0  1  0  0  0  0  0999 V2000 
    5.4270    2.8985   -0.3505 C   0  0  0  0  0  0  0  0  0  0  0  0 
    0.8285    5.0879    1.9150 C   0  0  0  0  0  0  0  0  0  0  0  0 
    1.2829    6.2884    1.3638 C   0  0  0  0  0  0  0  0  0  0  0  0 
    1.0515    3.8718    1.2495 C   0  0  0  0  0  0  0  0  0  0  0  0 
    1.9606    6.3167    0.1365 C   0  0  0  0  0  0  0  0  0  0  0  0 
    3.1139    1.7509   -0.3198 C   0  0  0  0  0  0  0  0  0  0  0  0 
    4.3482    2.2128    0.4933 C   0  0  1  0  0  0  0  0  0  0  0  0 
    1.7207    3.8978    0.0361 C   0  0  0  0  0  0  0  0  0  0  0  0 
    2.1687    5.1118   -0.5229 C   0  0  0  0  0  0  0  0  0  0  0  0 
    2.7614    3.6819   -2.0169 C   0  0  0  0  0  0  0  0  0  0  0  0 
    2.1483    2.7994   -0.9138 C   0  0  1  0  0  0  0  0  0  0  0  0 
    4.9762    1.0915    1.2120 N   0  0  0  0  0  0  0  0  0  0  0  0 
    2.7910    4.9463   -1.7953 N   0  0  0  0  0  0  0  0  0  0  0  0 
    3.1958    3.1247   -3.1553 O   0  0  0  0  0  0  0  0  0  0  0  0 
    1.0876    2.0119   -1.4872 O   0  0  0  0  0  0  0  0  0  0  0  0 
    5.0762    3.8355   -0.7900 H   0  0  0  0  0  0  0  0  0  0  0  0 
    5.7556    2.2447   -1.1698 H   0  0  0  0  0  0  0  0  0  0  0  0 
    6.2955    3.1125    0.2790 H   0  0  0  0  0  0  0  0  0  0  0  0 
    0.3016    5.0938    2.8648 H   0  0  0  0  0  0  0  0  0  0  0  0 
    1.1056    7.2203    1.8942 H   0  0  0  0  0  0  0  0  0  0  0  0 
    0.6991    2.9356    1.6765 H   0  0  0  0  0  0  0  0  0  0  0  0 
    2.3101    7.2481   -0.2978 H   0  0  0  0  0  0  0  0  0  0  0  0 
    2.4841    1.1274    0.3282 H   0  0  0  0  0  0  0  0  0  0  0  0 
    3.4493    1.0962   -1.1387 H   0  0  0  0  0  0  0  0  0  0  0  0 
    4.0072    2.9172    1.2618 H   0  0  0  0  0  0  0  0  0  0  0  0 
    5.3038    0.3965    0.5396 H   0  0  0  0  0  0  0  0  0  0  0  0 
    4.2834    0.6167    1.7907 H   0  0  0  0  0  0  0  0  0  0  0  0 
    2.8574    2.2108   -3.1749 H   0  0  0  0  0  0  0  0  0  0  0  0 
    0.3559    2.6180   -1.6941 H   0  0  0  0  0  0  0  0  0  0  0  0 
  1 18  1  0  0  0  0 
  1  7  1  0  0  0  0 
  2 19  1  0  0  0  0 
  3 20  1  0  0  0  0 
  3  2  1  0  0  0  0 
  4 21  1  0  0  0  0 
  4  2  2  0  0  0  0 
  5  3  2  0  0  0  0 
  6 23  1  0  0  0  0 
  6  7  1  0  0  0  0 
  7 12  1  0  0  0  0 
  7 25  1  1  0  0  0 
  8  4  1  0  0  0  0 
  9  8  2  0  0  0  0 
  9  5  1  0  0  0  0 
 10 13  2  0  0  0  0 
 10 11  1  0  0  0  0 
 11 15  1  6  0  0  0 
 11  6  1  0  0  0  0 
 11  8  1  0  0  0  0 
 12 27  1  0  0  0  0 
 13  9  1  0  0  0  0 
 14 10  1  0  0  0  0 
 16  1  1  0  0  0  0 
 17  1  1  0  0  0  0 
 22  5  1  0  0  0  0 
 24  6  1  0  0  0  0 
 26 12  1  0  0  0  0 
 28 14  1  0  0  0  0 
 29 15  1  0  0  0  0 
M  END 
>  <HBA> 
4 
 
>  <HBD> 
3 
 
>  <TPSA> 
75.35 
 
>  <cid> 
58649 
 
>  <dipole> 
3.28 
 
>  <excitation_energy_1> 
4.21 
 
>  <excitation_energy_2> 
4.665 
 
>  <excitation_energy_3> 
4.84 
 
>  <excitation_energy_4> 
4.945 
 
>  <homo_energy> 
-6.016 
 
>  <homo_lumo_gap> 
4.982 
 
>  <logP> 
1.402 
 
>  <lumo_energy> 
-1.034 
 
>  <melting_point> 
164.5 
 
>  <molecular_refractivity> 
59.91 
 
>  <oscillator_strength_1> 
0.038 
 
>  <oscillator_strength_2> 
0.0016 
 
>  <oscillator_strength_3> 
0.0079 
 
>  <oscillator_strength_4> 
0.0079 
 
>  <open_babel_can_smiles> 
C[C@@H](C[C@]1(O)C(=Nc2c1cccc2)O)N 
 
>  <mulliken_charges> 
29 
1   -0.456505 
2   -0.139088 
3   -0.131773 
4   -0.204525 
5   -0.191471 
6   -0.268497 
7   0.020845 
8   0.087084 
9   0.246389 
10   0.532751 
11   0.118439 
12   -0.702082 
13   -0.511547 
14   -0.598942 
15   -0.640041 
16   0.171425 
17   0.131503 
18   0.165047 
19   0.130612 
20   0.133879 
21   0.134401 
22   0.14462 
23   0.148539 
24   0.120849 
25   0.150045 
26   0.287923 
27   0.291676 
28   0.425588 
29   0.402856 
 
>  <lowdin_charges> 
29 
1   -0.457186 
2   -0.168004 
3   -0.145043 
4   -0.155489 
5   -0.169819 
6   -0.293663 
7   -0.06623 
8   -0.063866 
9   0.040941 
10   0.111057 
11   0.088193 
12   -0.549052 
13   -0.188509 
14   -0.325101 
15   -0.449813 
16   0.164612 
17   0.144011 
18   0.163766 
19   0.158497 
20   0.160672 
21   0.160079 
22   0.169325 
23   0.156665 
24   0.140618 
25   0.150139 
26   0.250724 
27   0.252203 
28   0.367409 
29   0.352866 
 
$$$$ 
 
