PCCDB-ID:  70000 
public computational chemistry database (PCCDB) project, http://pccdb.org 
 
 23 24  0  0  0  0  0  0  0  0999 V2000 
    1.0905   -0.8793   -0.8630 C   0  0  0  0  0  0  0  0  0  0  0  0 
    3.2041   -2.9197    3.3843 C   0  0  0  0  0  0  0  0  0  0  0  0 
    3.5750   -1.5780    3.3014 C   0  0  0  0  0  0  0  0  0  0  0  0 
    2.4924   -3.4971    2.3299 C   0  0  0  0  0  0  0  0  0  0  0  0 
    3.2334   -0.8206    2.1809 C   0  0  0  0  0  0  0  0  0  0  0  0 
    2.1496   -2.7384    1.2139 C   0  0  0  0  0  0  0  0  0  0  0  0 
    3.2134    1.1856   -1.7090 C   0  0  0  0  0  0  0  0  0  0  0  0 
    4.3244    0.6315   -0.8499 C   0  0  0  0  0  0  0  0  0  0  0  0 
    2.1182   -0.5545   -0.0628 C   0  0  0  0  0  0  0  0  0  0  0  0 
    2.5003   -1.3787    1.1190 C   0  0  0  0  0  0  0  0  0  0  0  0 
    2.9100    0.6989   -0.3146 C   0  0  0  0  0  0  0  0  0  0  0  0 
    0.4639   -1.7482   -0.6875 H   0  0  0  0  0  0  0  0  0  0  0  0 
    0.8306   -0.2623   -1.7172 H   0  0  0  0  0  0  0  0  0  0  0  0 
    3.4744   -3.5124    4.2540 H   0  0  0  0  0  0  0  0  0  0  0  0 
    4.1361   -1.1160    4.1096 H   0  0  0  0  0  0  0  0  0  0  0  0 
    2.2125   -4.5467    2.3713 H   0  0  0  0  0  0  0  0  0  0  0  0 
    3.5389    0.2194    2.1348 H   0  0  0  0  0  0  0  0  0  0  0  0 
    1.6242   -3.2151    0.3920 H   0  0  0  0  0  0  0  0  0  0  0  0 
    2.8789    0.5812   -2.5473 H   0  0  0  0  0  0  0  0  0  0  0  0 
    3.1857    2.2560   -1.8941 H   0  0  0  0  0  0  0  0  0  0  0  0 
    5.0661    1.3151   -0.4455 H   0  0  0  0  0  0  0  0  0  0  0  0 
    4.7138   -0.3498   -1.1070 H   0  0  0  0  0  0  0  0  0  0  0  0 
    2.7361    1.4873    0.4182 H   0  0  0  0  0  0  0  0  0  0  0  0 
  1 12  1  0  0  0  0 
  1  9  2  0  0  0  0 
  2 14  1  0  0  0  0 
  3  2  1  0  0  0  0 
  3 15  1  0  0  0  0 
  4 16  1  0  0  0  0 
  4  2  2  0  0  0  0 
  5  3  2  0  0  0  0 
  6  4  1  0  0  0  0 
  7  8  1  0  0  0  0 
  7 11  1  0  0  0  0 
  8 21  1  0  0  0  0 
  8 11  1  0  0  0  0 
  9 10  1  0  0  0  0 
 10  6  2  0  0  0  0 
 10  5  1  0  0  0  0 
 11  9  1  0  0  0  0 
 11 23  1  0  0  0  0 
 13  1  1  0  0  0  0 
 17  5  1  0  0  0  0 
 18  6  1  0  0  0  0 
 19  7  1  0  0  0  0 
 20  7  1  0  0  0  0 
 22  8  1  0  0  0  0 
M  END 
>  <HBA> 
0 
 
>  <HBD> 
0 
 
>  <TPSA> 
0.0 
 
>  <cid> 
70000 
 
>  <dipole> 
0.33 
 
>  <excitation_energy_1> 
4.837 
 
>  <excitation_energy_2> 
4.884 
 
>  <excitation_energy_3> 
5.583 
 
>  <excitation_energy_4> 
5.699 
 
>  <homo_energy> 
-5.989 
 
>  <homo_lumo_gap> 
5.331 
 
>  <logP> 
3.11 
 
>  <lumo_energy> 
-0.659 
 
>  <melting_point> 
9.55 
 
>  <molecular_refractivity> 
48.84 
 
>  <oscillator_strength_1> 
0.148 
 
>  <oscillator_strength_2> 
0.1367 
 
>  <oscillator_strength_3> 
0.0369 
 
>  <oscillator_strength_4> 
0.0652 
 
>  <open_babel_can_smiles> 
C=C(c1ccccc1)C1CC1 
 
>  <mulliken_charges> 
23 
1   -0.408994 
2   -0.127314 
3   -0.132038 
4   -0.132844 
5   -0.178699 
6   -0.181157 
7   -0.318803 
8   -0.297517 
9   0.14987 
10   0.120202 
11   -0.18239 
12   0.141268 
13   0.14345 
14   0.127811 
15   0.12779 
16   0.128198 
17   0.12833 
18   0.128219 
19   0.154585 
20   0.148949 
21   0.148092 
22   0.159332 
23   0.153661 
 
>  <lowdin_charges> 
23 
1   -0.344678 
2   -0.159204 
3   -0.157368 
4   -0.154691 
5   -0.159675 
6   -0.158646 
7   -0.310636 
8   -0.31173 
9   0.006462 
10   -0.002534 
11   -0.153648 
12   0.157963 
13   0.161857 
14   0.157746 
15   0.157744 
16   0.15543 
17   0.158458 
18   0.158857 
19   0.1616 
20   0.156699 
21   0.158265 
22   0.162062 
23   0.159667 
 
$$$$ 
 
