PCCDB-ID:  22442 
public computational chemistry database (PCCDB) project, http://pccdb.org 
 
 26 25  0  0  0  0  0  0  0  0999 V2000 
    1.3139   -0.7266   -2.1396 C   0  0  0  0  0  0  0  0  0  0  0  0 
    7.7843    2.9799   -2.6205 C   0  0  0  0  0  0  0  0  0  0  0  0 
    2.6333   -0.3527   -1.4565 C   0  0  0  0  0  0  0  0  0  0  0  0 
    7.3698    3.3452   -1.2307 C   0  0  0  0  0  0  0  0  0  0  0  0 
    3.0844    1.0817   -1.7600 C   0  0  0  0  0  0  0  0  0  0  0  0 
    4.4071    1.4571   -1.0812 C   0  0  0  0  0  0  0  0  0  0  0  0 
    4.8495    2.8990   -1.4060 C   0  0  0  0  0  0  0  0  0  0  0  0 
    6.1274    3.3094   -0.7311 C   0  0  0  0  0  0  0  0  0  0  0  0 
    5.9837    3.7056    0.6954 N   0  0  0  0  0  0  0  0  0  0  0  0 
    6.9806    4.0531    1.3283 O   0  0  0  0  0  0  0  0  0  0  0  0 
    4.8469    3.6628    1.1717 O   0  0  0  0  0  0  0  0  0  0  0  0 
    1.0182   -1.7548   -1.9025 H   0  0  0  0  0  0  0  0  0  0  0  0 
    1.3952   -0.6465   -3.2308 H   0  0  0  0  0  0  0  0  0  0  0  0 
    0.5005   -0.0638   -1.8198 H   0  0  0  0  0  0  0  0  0  0  0  0 
    8.3176    3.8173   -3.0888 H   0  0  0  0  0  0  0  0  0  0  0  0 
    6.9484    2.6980   -3.2645 H   0  0  0  0  0  0  0  0  0  0  0  0 
    8.4919    2.1405   -2.5917 H   0  0  0  0  0  0  0  0  0  0  0  0 
    3.4198   -1.0540   -1.7696 H   0  0  0  0  0  0  0  0  0  0  0  0 
    2.5313   -0.4760   -0.3693 H   0  0  0  0  0  0  0  0  0  0  0  0 
    8.1572    3.6664   -0.5545 H   0  0  0  0  0  0  0  0  0  0  0  0 
    2.3010    1.7842   -1.4398 H   0  0  0  0  0  0  0  0  0  0  0  0 
    3.1814    1.2089   -2.8491 H   0  0  0  0  0  0  0  0  0  0  0  0 
    5.1951    0.7589   -1.3966 H   0  0  0  0  0  0  0  0  0  0  0  0 
    4.3070    1.3519    0.0053 H   0  0  0  0  0  0  0  0  0  0  0  0 
    4.0546    3.5927   -1.1155 H   0  0  0  0  0  0  0  0  0  0  0  0 
    4.9823    3.0019   -2.4887 H   0  0  0  0  0  0  0  0  0  0  0  0 
  1 12  1  0  0  0  0 
  1 14  1  0  0  0  0 
  1  3  1  0  0  0  0 
  2 17  1  0  0  0  0 
  2  4  1  0  0  0  0 
  3 19  1  0  0  0  0 
  4  8  2  0  0  0  0 
  4 20  1  0  0  0  0 
  5  3  1  0  0  0  0 
  5 21  1  0  0  0  0 
  5  6  1  0  0  0  0 
  6 24  1  0  0  0  0 
  7 25  1  0  0  0  0 
  7  6  1  0  0  0  0 
  7  8  1  0  0  0  0 
  8  9  1  0  0  0  0 
  9 11  2  0  0  0  0 
  9 10  2  0  0  0  0 
 13  1  1  0  0  0  0 
 15  2  1  0  0  0  0 
 16  2  1  0  0  0  0 
 18  3  1  0  0  0  0 
 22  5  1  0  0  0  0 
 23  6  1  0  0  0  0 
 26  7  1  0  0  0  0 
M  END 
>  <HBA> 
0 
 
>  <HBD> 
0 
 
>  <TPSA> 
45.82 
 
>  <cid> 
22442 
 
>  <dipole> 
4.39 
 
>  <excitation_energy_1> 
3.713 
 
>  <excitation_energy_2> 
4.257 
 
>  <excitation_energy_3> 
4.691 
 
>  <excitation_energy_4> 
5.784 
 
>  <homo_energy> 
-7.478 
 
>  <homo_lumo_gap> 
5.314 
 
>  <logP> 
3.27 
 
>  <lumo_energy> 
-2.163 
 
>  <melting_point> 
16.08 
 
>  <molecular_refractivity> 
48.2 
 
>  <oscillator_strength_1> 
0.0002 
 
>  <oscillator_strength_2> 
0.0007 
 
>  <oscillator_strength_3> 
0.1528 
 
>  <oscillator_strength_4> 
0.0163 
 
>  <open_babel_can_smiles> 
CCCCC/C(=C\C)/N(=O)=O 
 
>  <mulliken_charges> 
26 
1   -0.442208 
2   -0.497633 
3   -0.248604 
4   -0.145236 
5   -0.247096 
6   -0.259422 
7   -0.340063 
8   0.286089 
9   0.413668 
10   -0.405623 
11   -0.39437 
12   0.143971 
13   0.140519 
14   0.144064 
15   0.177183 
16   0.168608 
17   0.178634 
18   0.12998 
19   0.136952 
20   0.189806 
21   0.136454 
22   0.124281 
23   0.130276 
24   0.159045 
25   0.175239 
26   0.145483 
 
>  <lowdin_charges> 
26 
1   -0.442041 
2   -0.440978 
3   -0.270466 
4   -0.121379 
5   -0.273114 
6   -0.272861 
7   -0.279549 
8   -0.005211 
9   0.304054 
10   -0.256371 
11   -0.250778 
12   0.149646 
13   0.143837 
14   0.148445 
15   0.172595 
16   0.162882 
17   0.173387 
18   0.139591 
19   0.14026 
20   0.187458 
21   0.143069 
22   0.133648 
23   0.140206 
24   0.151052 
25   0.170488 
26   0.15213 
 
$$$$ 
 
