PCCDB-ID:  52295 
public computational chemistry database (PCCDB) project, http://pccdb.org 
 
 30 31  0  0  0  0  0  0  0  0999 V2000 
   -1.0465   -1.3777   -4.6417 C   0  0  0  0  0  0  0  0  0  0  0  0 
   -1.6127   -2.1856   -3.6554 C   0  0  0  0  0  0  0  0  0  0  0  0 
    0.1694   -0.7446   -4.3963 C   0  0  0  0  0  0  0  0  0  0  0  0 
   -0.9663   -2.3364   -2.4324 C   0  0  0  0  0  0  0  0  0  0  0  0 
    3.3236   -1.3886   -4.7150 C   0  0  0  0  0  0  0  0  0  0  0  0 
    4.3183    0.5924   -3.6697 C   0  0  0  0  0  0  0  0  0  0  0  0 
    3.8502   -0.8837   -6.0599 C   0  0  0  0  0  0  0  0  0  0  0  0 
    4.8006    1.0127   -5.0579 C   0  0  0  0  0  0  0  0  0  0  0  0 
    0.8248   -0.8802   -3.1623 C   0  0  0  0  0  0  0  0  0  0  0  0 
    0.2361   -1.6718   -2.1504 C   0  0  0  0  0  0  0  0  0  0  0  0 
    2.0828   -0.0771   -2.9508 C   0  0  0  0  0  0  0  0  0  0  0  0 
    0.7945   -1.9428   -0.7629 C   0  0  0  0  0  0  0  0  0  0  0  0 
    3.1247   -0.2521   -3.8079 N   0  0  0  0  0  0  0  0  0  0  0  0 
    2.1270    0.7728   -2.0456 O   0  0  0  0  0  0  0  0  0  0  0  0 
    0.5558   -2.9918   -0.2023 O   0  0  0  0  0  0  0  0  0  0  0  0 
    1.5163   -0.9912   -0.1617 O   0  0  0  0  0  0  0  0  0  0  0  0 
    5.0308   -0.1143   -5.8945 O   0  0  0  0  0  0  0  0  0  0  0  0 
   -1.5435   -1.2433   -5.5983 H   0  0  0  0  0  0  0  0  0  0  0  0 
   -2.5538   -2.6965   -3.8375 H   0  0  0  0  0  0  0  0  0  0  0  0 
    0.6159   -0.1184   -5.1638 H   0  0  0  0  0  0  0  0  0  0  0  0 
   -1.3799   -2.9755   -1.6603 H   0  0  0  0  0  0  0  0  0  0  0  0 
    4.0667   -2.0658   -4.2702 H   0  0  0  0  0  0  0  0  0  0  0  0 
    2.3916   -1.9388   -4.8408 H   0  0  0  0  0  0  0  0  0  0  0  0 
    4.0600    1.4552   -3.0554 H   0  0  0  0  0  0  0  0  0  0  0  0 
    5.1060    0.0222   -3.1582 H   0  0  0  0  0  0  0  0  0  0  0  0 
    3.0721   -0.2859   -6.5642 H   0  0  0  0  0  0  0  0  0  0  0  0 
    4.1144   -1.7276   -6.7036 H   0  0  0  0  0  0  0  0  0  0  0  0 
    5.7536    1.5438   -4.9842 H   0  0  0  0  0  0  0  0  0  0  0  0 
    4.0584    1.6835   -5.5213 H   0  0  0  0  0  0  0  0  0  0  0  0 
    1.6050   -0.1804   -0.7220 H   0  0  0  0  0  0  0  0  0  0  0  0 
  1  3  2  0  0  0  0 
  1  2  1  0  0  0  0 
  2  4  2  0  0  0  0 
  3  9  1  0  0  0  0 
  4 10  1  0  0  0  0 
  4 21  1  0  0  0  0 
  5 22  1  0  0  0  0 
  5 13  1  0  0  0  0 
  6 25  1  0  0  0  0 
  6 24  1  0  0  0  0 
  7 17  1  0  0  0  0 
  7  5  1  0  0  0  0 
  8 28  1  0  0  0  0 
  8  6  1  0  0  0  0 
  9 11  1  0  0  0  0 
  9 10  2  0  0  0  0 
 10 12  1  0  0  0  0 
 11 14  2  0  0  0  0 
 12 15  2  0  0  0  0 
 12 16  1  0  0  0  0 
 13  6  1  0  0  0  0 
 13 11  1  0  0  0  0 
 17  8  1  0  0  0  0 
 18  1  1  0  0  0  0 
 19  2  1  0  0  0  0 
 20  3  1  0  0  0  0 
 23  5  1  0  0  0  0 
 26  7  1  0  0  0  0 
 27  7  1  0  0  0  0 
 29  8  1  0  0  0  0 
 30 16  1  0  0  0  0 
M  END 
>  <HBA> 
5 
 
>  <HBD> 
1 
 
>  <TPSA> 
66.84 
 
>  <cid> 
52295 
 
>  <dipole> 
6.44 
 
>  <excitation_energy_1> 
4.476 
 
>  <excitation_energy_2> 
4.833 
 
>  <excitation_energy_3> 
4.914 
 
>  <excitation_energy_4> 
4.986 
 
>  <homo_energy> 
-6.947 
 
>  <homo_lumo_gap> 
5.459 
 
>  <logP> 
0.795 
 
>  <lumo_energy> 
-1.488 
 
>  <melting_point> 
144.81 
 
>  <molecular_refractivity> 
63.8 
 
>  <oscillator_strength_1> 
0.0119 
 
>  <oscillator_strength_2> 
0.0111 
 
>  <oscillator_strength_3> 
0.043 
 
>  <oscillator_strength_4> 
0.0216 
 
>  <open_babel_can_smiles> 
O=C(c1ccccc1C(=O)O)N1CCOCC1 
 
>  <mulliken_charges> 
30 
1   -0.122725 
2   -0.123182 
3   -0.170223 
4   -0.163374 
5   -0.163764 
6   -0.15928 
7   -0.035548 
8   -0.041777 
9   0.022003 
10   0.014569 
11   0.511153 
12   0.546223 
13   -0.425394 
14   -0.545137 
15   -0.460011 
16   -0.59644 
17   -0.460214 
18   0.144717 
19   0.147405 
20   0.145284 
21   0.177502 
22   0.171231 
23   0.180601 
24   0.20027 
25   0.166983 
26   0.13133 
27   0.161439 
28   0.162366 
29   0.134973 
30   0.449021 
 
>  <lowdin_charges> 
30 
1   -0.143969 
2   -0.144624 
3   -0.161306 
4   -0.126975 
5   -0.215698 
6   -0.214756 
7   -0.141281 
8   -0.138927 
9   -0.033926 
10   -0.04431 
11   0.164716 
12   0.186548 
13   -0.086145 
14   -0.329716 
15   -0.259194 
16   -0.35546 
17   -0.267791 
18   0.165263 
19   0.166596 
20   0.163942 
21   0.185196 
22   0.157706 
23   0.174762 
24   0.184835 
25   0.157095 
26   0.132832 
27   0.160992 
28   0.161042 
29   0.136037 
30   0.366518 
 
$$$$ 
 
