PCCDB-ID:  27975 
public computational chemistry database (PCCDB) project, http://pccdb.org 
 
 32 33  0  0  1  0  0  0  0  0999 V2000 
    0.7930    0.3208   -0.2823 C   0  0  0  0  0  0  0  0  0  0  0  0 
    3.1089    0.2034   -1.3095 C   0  0  0  0  0  0  0  0  0  0  0  0 
    2.7790   -5.2346    2.1513 C   0  0  0  0  0  0  0  0  0  0  0  0 
    5.3119    0.5274    3.5761 C   0  0  0  0  0  0  0  0  0  0  0  0 
    4.6282    1.4057    2.7311 C   0  0  0  0  0  0  0  0  0  0  0  0 
    5.1044   -0.8544    3.4802 C   0  0  0  0  0  0  0  0  0  0  0  0 
    3.7401    0.8783    1.7959 C   0  0  0  0  0  0  0  0  0  0  0  0 
    4.2119   -1.3786    2.5491 C   0  0  0  0  0  0  0  0  0  0  0  0 
    3.5189   -0.4965    1.7177 C   0  0  0  0  0  0  0  0  0  0  0  0 
    2.7931    1.5511    0.8314 C   0  0  1  0  0  0  0  0  0  0  0  0 
    4.1572   -3.4768    1.4052 C   0  0  0  0  0  0  0  0  0  0  0  0 
    2.2912    0.3299   -0.0229 C   0  0  0  0  0  0  0  0  0  0  0  0 
    3.6786   -4.6234    1.1881 N   0  0  0  0  0  0  0  0  0  0  0  0 
    1.7712    2.2984    1.4871 O   0  0  0  0  0  0  0  0  0  0  0  0 
    4.9827   -2.8636    0.5270 O   0  0  0  0  0  0  0  0  0  0  0  0 
    3.9611   -2.7461    2.5406 O   0  0  0  0  0  0  0  0  0  0  0  0 
    2.5999   -0.8647    0.7911 O   0  0  0  0  0  0  0  0  0  0  0  0 
    0.5072    1.1833   -0.8920 H   0  0  0  0  0  0  0  0  0  0  0  0 
    0.2296    0.3685    0.6527 H   0  0  0  0  0  0  0  0  0  0  0  0 
    0.5122   -0.5945   -0.8129 H   0  0  0  0  0  0  0  0  0  0  0  0 
    2.9056    1.0482   -1.9774 H   0  0  0  0  0  0  0  0  0  0  0  0 
    2.8528   -0.7234   -1.8318 H   0  0  0  0  0  0  0  0  0  0  0  0 
    4.1815    0.1868   -1.0877 H   0  0  0  0  0  0  0  0  0  0  0  0 
    1.9509   -5.7075    1.6117 H   0  0  0  0  0  0  0  0  0  0  0  0 
    2.3653   -4.5298    2.8832 H   0  0  0  0  0  0  0  0  0  0  0  0 
    3.3032   -6.0291    2.6986 H   0  0  0  0  0  0  0  0  0  0  0  0 
    6.0125    0.9114    4.3112 H   0  0  0  0  0  0  0  0  0  0  0  0 
    4.7813    2.4789    2.8025 H   0  0  0  0  0  0  0  0  0  0  0  0 
    5.6343   -1.5455    4.1285 H   0  0  0  0  0  0  0  0  0  0  0  0 
    3.2823    2.2788    0.1767 H   0  0  0  0  0  0  0  0  0  0  0  0 
    1.4873    1.7864    2.2619 H   0  0  0  0  0  0  0  0  0  0  0  0 
    5.0319   -3.4720   -0.2311 H   0  0  0  0  0  0  0  0  0  0  0  0 
  1 12  1  0  0  0  0 
  1 19  1  0  0  0  0 
  2 23  1  0  0  0  0 
  2 12  1  0  0  0  0 
  3 26  1  0  0  0  0 
  3 25  1  0  0  0  0 
  4 27  1  0  0  0  0 
  5 28  1  0  0  0  0 
  5  4  2  0  0  0  0 
  6  4  1  0  0  0  0 
  6 29  1  0  0  0  0 
  7  5  1  0  0  0  0 
  8  6  2  0  0  0  0 
  9  7  2  0  0  0  0 
  9  8  1  0  0  0  0 
 10 30  1  6  0  0  0 
 10 14  1  0  0  0  0 
 10  7  1  0  0  0  0 
 11 16  1  0  0  0  0 
 12 17  1  0  0  0  0 
 12 10  1  0  0  0  0 
 13 11  2  0  0  0  0 
 13  3  1  0  0  0  0 
 14 31  1  0  0  0  0 
 15 11  1  0  0  0  0 
 16  8  1  0  0  0  0 
 17  9  1  0  0  0  0 
 18  1  1  0  0  0  0 
 20  1  1  0  0  0  0 
 21  2  1  0  0  0  0 
 22  2  1  0  0  0  0 
 24  3  1  0  0  0  0 
 32 15  1  0  0  0  0 
M  END 
>  <HBA> 
5 
 
>  <HBD> 
2 
 
>  <TPSA> 
67.79 
 
>  <cid> 
27975 
 
>  <dipole> 
1.1 
 
>  <excitation_energy_1> 
4.724 
 
>  <excitation_energy_2> 
5.401 
 
>  <excitation_energy_3> 
5.447 
 
>  <excitation_energy_4> 
5.575 
 
>  <homo_energy> 
-5.973 
 
>  <homo_lumo_gap> 
5.57 
 
>  <logP> 
2.0 
 
>  <lumo_energy> 
-0.403 
 
>  <melting_point> 
128.5 
 
>  <molecular_refractivity> 
61.29 
 
>  <oscillator_strength_1> 
0.0756 
 
>  <oscillator_strength_2> 
0.0145 
 
>  <oscillator_strength_3> 
0.0023 
 
>  <oscillator_strength_4> 
0.0129 
 
>  <open_babel_can_smiles> 
C/N=C(\Oc1cccc2c1OC([C@H]2O)(C)C)/O 
 
>  <mulliken_charges> 
32 
1   -0.440581 
2   -0.450171 
3   -0.322322 
4   -0.151738 
5   -0.185607 
6   -0.17142 
7   0.043955 
8   0.295345 
9   0.365581 
10   0.045957 
11   0.718188 
12   0.262374 
13   -0.480877 
14   -0.614028 
15   -0.59241 
16   -0.54015 
17   -0.557005 
18   0.157525 
19   0.148139 
20   0.15606 
21   0.148526 
22   0.159793 
23   0.162135 
24   0.153175 
25   0.153065 
26   0.152806 
27   0.133892 
28   0.13984 
29   0.145191 
30   0.150577 
31   0.391626 
32   0.422557 
 
>  <lowdin_charges> 
32 
1   -0.442293 
2   -0.447119 
3   -0.355894 
4   -0.172584 
5   -0.150127 
6   -0.159749 
7   -0.07488 
8   0.071144 
9   0.079459 
10   -0.012584 
11   0.191958 
12   0.12178 
13   -0.25814 
14   -0.448852 
15   -0.360367 
16   -0.156452 
17   -0.204766 
18   0.163586 
19   0.156573 
20   0.159941 
21   0.155986 
22   0.160872 
23   0.15991 
24   0.152435 
25   0.145442 
26   0.151674 
27   0.162323 
28   0.162932 
29   0.172479 
30   0.157877 
31   0.344747 
32   0.372688 
 
$$$$ 
 
