PCCDB-ID:  58176 
public computational chemistry database (PCCDB) project, http://pccdb.org 
 
 39 41  0  0  1  0  0  0  0  0999 V2000 
   -0.1556    0.3747   -0.9428 C   0  0  0  0  0  0  0  0  0  0  0  0 
    7.5958   -3.8377    0.3488 C   0  0  0  0  0  0  0  0  0  0  0  0 
    7.1417   -3.4537    1.6103 C   0  0  0  0  0  0  0  0  0  0  0  0 
    7.2531   -3.0727   -0.7699 C   0  0  0  0  0  0  0  0  0  0  0  0 
    2.8735   -0.5342   -2.8494 C   0  0  0  0  0  0  0  0  0  0  0  0 
    6.3493   -2.3114    1.7509 C   0  0  0  0  0  0  0  0  0  0  0  0 
    6.4660   -1.9318   -0.6244 C   0  0  0  0  0  0  0  0  0  0  0  0 
    2.4583    0.9186   -2.5433 C   0  0  0  0  0  0  0  0  0  0  0  0 
    2.0018   -1.5516   -2.0872 C   0  0  0  0  0  0  0  0  0  0  0  0 
    5.1805   -0.2703    0.7911 C   0  0  0  0  0  0  0  0  0  0  0  0 
    3.4339    1.1147   -0.1492 C   0  0  0  0  0  0  0  0  0  0  0  0 
    3.0095   -1.2314    0.2792 C   0  0  0  0  0  0  0  0  0  0  0  0 
    6.0051   -1.5353    0.6391 C   0  0  0  0  0  0  0  0  0  0  0  0 
    2.1815    1.1648   -1.0396 C   0  0  2  0  0  0  0  0  0  0  0  0 
    1.7590   -1.1518   -0.6113 C   0  0  1  0  0  0  0  0  0  0  0  0 
    1.2127    0.2095   -0.4777 N   0  0  0  0  0  0  0  0  0  0  0  0 
    4.0142   -0.2293   -0.0897 N   0  0  0  0  0  0  0  0  0  0  0  0 
   -0.4891    1.3936   -0.7131 H   0  0  0  0  0  0  0  0  0  0  0  0 
   -0.8049   -0.3208   -0.3979 H   0  0  0  0  0  0  0  0  0  0  0  0 
   -0.3182    0.2060   -2.0222 H   0  0  0  0  0  0  0  0  0  0  0  0 
    8.2107   -4.7267    0.2356 H   0  0  0  0  0  0  0  0  0  0  0  0 
    7.3990   -4.0442    2.4860 H   0  0  0  0  0  0  0  0  0  0  0  0 
    7.6029   -3.3655   -1.7567 H   0  0  0  0  0  0  0  0  0  0  0  0 
    3.9187   -0.6753   -2.5650 H   0  0  0  0  0  0  0  0  0  0  0  0 
    2.8003   -0.7198   -3.9295 H   0  0  0  0  0  0  0  0  0  0  0  0 
    5.9939   -2.0188    2.7367 H   0  0  0  0  0  0  0  0  0  0  0  0 
    6.1955   -1.3390   -1.4940 H   0  0  0  0  0  0  0  0  0  0  0  0 
    1.5443    1.1637   -3.1012 H   0  0  0  0  0  0  0  0  0  0  0  0 
    3.2271    1.6174   -2.8989 H   0  0  0  0  0  0  0  0  0  0  0  0 
    2.4555   -2.5504   -2.1317 H   0  0  0  0  0  0  0  0  0  0  0  0 
    1.0241   -1.6385   -2.5806 H   0  0  0  0  0  0  0  0  0  0  0  0 
    5.8052    0.5973    0.5376 H   0  0  0  0  0  0  0  0  0  0  0  0 
    4.8929   -0.1456    1.8546 H   0  0  0  0  0  0  0  0  0  0  0  0 
    3.1433    1.4747    0.8573 H   0  0  0  0  0  0  0  0  0  0  0  0 
    4.1969    1.8009   -0.5394 H   0  0  0  0  0  0  0  0  0  0  0  0 
    3.4650   -2.2242    0.1973 H   0  0  0  0  0  0  0  0  0  0  0  0 
    2.6845   -1.0970    1.3301 H   0  0  0  0  0  0  0  0  0  0  0  0 
    1.7549    2.1703   -0.9250 H   0  0  0  0  0  0  0  0  0  0  0  0 
    1.0234   -1.8442   -0.1804 H   0  0  0  0  0  0  0  0  0  0  0  0 
  1 18  1  0  0  0  0 
  1 16  1  0  0  0  0 
  1 19  1  0  0  0  0 
  2  3  2  0  0  0  0 
  3  6  1  0  0  0  0 
  3 22  1  0  0  0  0 
  4  7  2  0  0  0  0 
  4  2  1  0  0  0  0 
  5 24  1  0  0  0  0 
  5  8  1  0  0  0  0 
  5  9  1  0  0  0  0 
  6 26  1  0  0  0  0 
  7 13  1  0  0  0  0 
  8 14  1  0  0  0  0 
  9 15  1  0  0  0  0 
 10 33  1  0  0  0  0 
 11 17  1  0  0  0  0 
 11 34  1  0  0  0  0 
 12 37  1  0  0  0  0 
 13 10  1  0  0  0  0 
 13  6  2  0  0  0  0 
 14 38  1  1  0  0  0 
 14 16  1  0  0  0  0 
 14 11  1  0  0  0  0 
 15 16  1  0  0  0  0 
 15 39  1  1  0  0  0 
 15 12  1  0  0  0  0 
 17 12  1  0  0  0  0 
 17 10  1  0  0  0  0 
 20  1  1  0  0  0  0 
 21  2  1  0  0  0  0 
 23  4  1  0  0  0  0 
 25  5  1  0  0  0  0 
 27  7  1  0  0  0  0 
 28  8  1  0  0  0  0 
 29  8  1  0  0  0  0 
 30  9  1  0  0  0  0 
 31  9  1  0  0  0  0 
 32 10  1  0  0  0  0 
 35 11  1  0  0  0  0 
 36 12  1  0  0  0  0 
M  END 
>  <HBA> 
2 
 
>  <HBD> 
0 
 
>  <TPSA> 
6.48 
 
>  <cid> 
58176 
 
>  <dipole> 
0.35 
 
>  <excitation_energy_1> 
4.576 
 
>  <excitation_energy_2> 
4.746 
 
>  <excitation_energy_3> 
4.773 
 
>  <excitation_energy_4> 
4.818 
 
>  <homo_energy> 
-5.344 
 
>  <homo_lumo_gap> 
5.366 
 
>  <logP> 
2.231 
 
>  <lumo_energy> 
0.022 
 
>  <melting_point> 
52.27 
 
>  <molecular_refractivity> 
79.26 
 
>  <oscillator_strength_1> 
0.0004 
 
>  <oscillator_strength_2> 
0.0005 
 
>  <oscillator_strength_3> 
0.0049 
 
>  <oscillator_strength_4> 
0.0005 
 
>  <open_babel_can_smiles> 
CN1[C@@H]2CCC[C@H]1CN(C2)Cc1ccccc1 
 
>  <mulliken_charges> 
39 
1   -0.298446 
2   -0.129603 
3   -0.128405 
4   -0.131933 
5   -0.262815 
6   -0.185386 
7   -0.166754 
8   -0.26666 
9   -0.267034 
10   -0.195428 
11   -0.106046 
12   -0.112129 
13   0.147569 
14   0.010663 
15   0.009215 
16   -0.383756 
17   -0.407736 
18   0.145462 
19   0.14605 
20   0.123673 
21   0.126949 
22   0.127318 
23   0.127591 
24   0.163341 
25   0.120854 
26   0.124211 
27   0.14035 
28   0.129859 
29   0.126426 
30   0.13072 
31   0.128922 
32   0.147799 
33   0.116327 
34   0.115861 
35   0.129753 
36   0.147196 
37   0.11263 
38   0.121274 
39   0.122116 
 
>  <lowdin_charges> 
39 
1   -0.356622 
2   -0.159076 
3   -0.15837 
4   -0.15626 
5   -0.282751 
6   -0.167936 
7   -0.159508 
8   -0.293479 
9   -0.290312 
10   -0.193413 
11   -0.204061 
12   -0.204077 
13   -0.010587 
14   -0.069626 
15   -0.071471 
16   -0.191147 
17   -0.185712 
18   0.147883 
19   0.150412 
20   0.119536 
21   0.156358 
22   0.157196 
23   0.155983 
24   0.150163 
25   0.136024 
26   0.154127 
27   0.161999 
28   0.140382 
29   0.144313 
30   0.144784 
31   0.139257 
32   0.152776 
33   0.120575 
34   0.1227 
35   0.142298 
36   0.150396 
37   0.120647 
38   0.142012 
39   0.144587 
 
$$$$ 
 
