PCCDB-ID:  35433 
public computational chemistry database (PCCDB) project, http://pccdb.org 
 
 34 34  0  0  0  0  0  0  0  0999 V2000 
   -0.4485   -5.1029   -0.1518 C   0  0  0  0  0  0  0  0  0  0  0  0 
   -0.5506   -3.7127   -0.2696 C   0  0  0  0  0  0  0  0  0  0  0  0 
    0.8100   -5.6977   -0.0556 C   0  0  0  0  0  0  0  0  0  0  0  0 
    0.5947   -2.9242   -0.2905 C   0  0  0  0  0  0  0  0  0  0  0  0 
    1.9570   -4.9069   -0.0775 C   0  0  0  0  0  0  0  0  0  0  0  0 
    3.1161   -2.7354   -0.2141 C   0  0  0  0  0  0  0  0  0  0  0  0 
    3.2590   -1.3992   -0.3066 C   0  0  0  0  0  0  0  0  0  0  0  0 
    6.0959    1.1255   -0.3755 C   0  0  0  0  0  0  0  0  0  0  0  0 
    3.6650    1.4359   -0.9210 C   0  0  0  0  0  0  0  0  0  0  0  0 
    6.8960    1.0555   -1.6805 C   0  0  0  0  0  0  0  0  0  0  0  0 
    2.8742    2.0670    0.2318 C   0  0  0  0  0  0  0  0  0  0  0  0 
    1.8735   -3.5073   -0.1949 C   0  0  0  0  0  0  0  0  0  0  0  0 
    4.6211   -0.8096   -0.2969 C   0  0  0  0  0  0  0  0  0  0  0  0 
    4.7431    0.5503   -0.4677 N   0  0  0  0  0  0  0  0  0  0  0  0 
    7.0171   -0.2482   -2.2070 O   0  0  0  0  0  0  0  0  0  0  0  0 
    3.6982    2.8065    1.1216 O   0  0  0  0  0  0  0  0  0  0  0  0 
    5.6239   -1.5163   -0.1068 O   0  0  0  0  0  0  0  0  0  0  0  0 
   -1.3456   -5.7158   -0.1356 H   0  0  0  0  0  0  0  0  0  0  0  0 
   -1.5283   -3.2445   -0.3459 H   0  0  0  0  0  0  0  0  0  0  0  0 
    0.8989   -6.7765    0.0364 H   0  0  0  0  0  0  0  0  0  0  0  0 
    0.4964   -1.8466   -0.3830 H   0  0  0  0  0  0  0  0  0  0  0  0 
    2.9371   -5.3715   -0.0034 H   0  0  0  0  0  0  0  0  0  0  0  0 
    4.0377   -3.3102   -0.1409 H   0  0  0  0  0  0  0  0  0  0  0  0 
    2.3950   -0.7484   -0.3736 H   0  0  0  0  0  0  0  0  0  0  0  0 
    5.9947    2.1683   -0.0599 H   0  0  0  0  0  0  0  0  0  0  0  0 
    6.6283    0.5791    0.4082 H   0  0  0  0  0  0  0  0  0  0  0  0 
    4.1268    2.2331   -1.5120 H   0  0  0  0  0  0  0  0  0  0  0  0 
    2.9893    0.9015   -1.5961 H   0  0  0  0  0  0  0  0  0  0  0  0 
    7.8850    1.5044   -1.4783 H   0  0  0  0  0  0  0  0  0  0  0  0 
    6.4172    1.6808   -2.4484 H   0  0  0  0  0  0  0  0  0  0  0  0 
    2.3098    1.2920    0.7732 H   0  0  0  0  0  0  0  0  0  0  0  0 
    2.1502    2.7789   -0.1792 H   0  0  0  0  0  0  0  0  0  0  0  0 
    6.8487   -0.8779   -1.4801 H   0  0  0  0  0  0  0  0  0  0  0  0 
    4.2295    2.1644    1.6181 H   0  0  0  0  0  0  0  0  0  0  0  0 
  1 18  1  0  0  0  0 
  1  3  2  0  0  0  0 
  2  1  1  0  0  0  0 
  3 20  1  0  0  0  0 
  4  2  2  0  0  0  0 
  4 12  1  0  0  0  0 
  5  3  1  0  0  0  0 
  5 22  1  0  0  0  0 
  6 12  1  0  0  0  0 
  6 23  1  0  0  0  0 
  7 13  1  0  0  0  0 
  7  6  2  0  0  0  0 
  8 25  1  0  0  0  0 
  8 26  1  0  0  0  0 
  9 14  1  0  0  0  0 
  9 11  1  0  0  0  0 
 10 29  1  0  0  0  0 
 10  8  1  0  0  0  0 
 11 31  1  0  0  0  0 
 11 16  1  0  0  0  0 
 12  5  2  0  0  0  0 
 13 17  2  0  0  0  0 
 14  8  1  0  0  0  0 
 14 13  1  0  0  0  0 
 15 10  1  0  0  0  0 
 15 33  1  0  0  0  0 
 16 34  1  0  0  0  0 
 19  2  1  0  0  0  0 
 21  4  1  0  0  0  0 
 24  7  1  0  0  0  0 
 27  9  1  0  0  0  0 
 28  9  1  0  0  0  0 
 30 10  1  0  0  0  0 
 32 11  1  0  0  0  0 
M  END 
>  <HBA> 
4 
 
>  <HBD> 
2 
 
>  <TPSA> 
60.77 
 
>  <cid> 
35433 
 
>  <dipole> 
4.23 
 
>  <excitation_energy_1> 
4.003 
 
>  <excitation_energy_2> 
4.242 
 
>  <excitation_energy_3> 
4.313 
 
>  <excitation_energy_4> 
4.511 
 
>  <homo_energy> 
-6.4 
 
>  <homo_lumo_gap> 
4.558 
 
>  <logP> 
0.513 
 
>  <lumo_energy> 
-1.842 
 
>  <melting_point> 
84.78 
 
>  <molecular_refractivity> 
65.99 
 
>  <oscillator_strength_1> 
0.0812 
 
>  <oscillator_strength_2> 
0.4031 
 
>  <oscillator_strength_3> 
0.2898 
 
>  <oscillator_strength_4> 
0.0096 
 
>  <open_babel_can_smiles> 
OCCN(C(=O)/C=C/c1ccccc1)CCO 
 
>  <mulliken_charges> 
34 
1   -0.123446 
2   -0.131372 
3   -0.131859 
4   -0.170277 
5   -0.185099 
6   -0.151799 
7   -0.214716 
8   -0.226639 
9   -0.165397 
10   0.014839 
11   -0.041092 
12   0.165865 
13   0.613756 
14   -0.445451 
15   -0.64661 
16   -0.607098 
17   -0.56981 
18   0.137872 
19   0.136527 
20   0.138924 
21   0.128585 
22   0.142972 
23   0.173599 
24   0.133542 
25   0.158011 
26   0.178638 
27   0.170927 
28   0.161367 
29   0.119397 
30   0.126301 
31   0.132946 
32   0.15321 
33   0.421789 
34   0.401596 
 
>  <lowdin_charges> 
34 
1   -0.146799 
2   -0.152378 
3   -0.150469 
4   -0.145865 
5   -0.147146 
6   -0.097983 
7   -0.220736 
8   -0.229035 
9   -0.220987 
10   -0.133937 
11   -0.147559 
12   -0.008973 
13   0.170101 
14   -0.106594 
15   -0.486502 
16   -0.462851 
17   -0.346723 
18   0.162441 
19   0.160744 
20   0.160434 
21   0.155113 
22   0.163172 
23   0.179912 
24   0.156868 
25   0.156715 
26   0.166452 
27   0.164165 
28   0.160703 
29   0.128402 
30   0.133947 
31   0.132899 
32   0.153975 
33   0.349297 
34   0.349199 
 
$$$$ 
 
