PCCDB-ID:  36284 
public computational chemistry database (PCCDB) project, http://pccdb.org 
 
 24 24  0  0  1  0  0  0  0  0999 V2000 
    3.0436   -0.2068    2.3324 C   0  0  0  0  0  0  0  0  0  0  0  0 
    2.8865    1.4347    0.3937 C   0  0  0  0  0  0  0  0  0  0  0  0 
    2.4260    2.8139   -0.0829 C   0  0  0  0  0  0  0  0  0  0  0  0 
    1.7411    5.8011   -0.6833 C   0  0  0  0  0  0  0  0  0  0  0  0 
    1.8362    7.1543   -0.7143 C   0  0  0  0  0  0  0  0  0  0  0  0 
    3.5713    6.4621    0.4264 C   0  0  0  0  0  0  0  0  0  0  0  0 
    2.5292    1.1531    1.8621 C   0  0  1  0  0  0  0  0  0  0  0  0 
    2.8817    5.3337    0.0674 C   0  0  0  0  0  0  0  0  0  0  0  0 
    3.2965    3.9586    0.4218 C   0  0  0  0  0  0  0  0  0  0  0  0 
    1.1165    1.2731    2.0818 O   0  0  0  0  0  0  0  0  0  0  0  0 
    4.3076    3.7627    1.0846 O   0  0  0  0  0  0  0  0  0  0  0  0 
    2.9539    7.5708   -0.0379 O   0  0  0  0  0  0  0  0  0  0  0  0 
    4.1350   -0.2661    2.2543 H   0  0  0  0  0  0  0  0  0  0  0  0 
    2.6212   -1.0176    1.7219 H   0  0  0  0  0  0  0  0  0  0  0  0 
    2.7595   -0.3812    3.3750 H   0  0  0  0  0  0  0  0  0  0  0  0 
    3.9705    1.3442    0.2635 H   0  0  0  0  0  0  0  0  0  0  0  0 
    2.4201    0.6613   -0.2347 H   0  0  0  0  0  0  0  0  0  0  0  0 
    1.3903    2.9896    0.2371 H   0  0  0  0  0  0  0  0  0  0  0  0 
    2.4174    2.8673   -1.1816 H   0  0  0  0  0  0  0  0  0  0  0  0 
    0.9616    5.2031   -1.1333 H   0  0  0  0  0  0  0  0  0  0  0  0 
    1.2345    7.9394   -1.1455 H   0  0  0  0  0  0  0  0  0  0  0  0 
    4.4784    6.6103    0.9910 H   0  0  0  0  0  0  0  0  0  0  0  0 
    2.9672    1.9391    2.4846 H   0  0  0  0  0  0  0  0  0  0  0  0 
    0.6916    0.5369    1.6112 H   0  0  0  0  0  0  0  0  0  0  0  0 
  1 15  1  0  0  0  0 
  2  7  1  0  0  0  0 
  3 18  1  0  0  0  0 
  3  2  1  0  0  0  0 
  3  9  1  0  0  0  0 
  4  8  1  0  0  0  0 
  5  4  2  0  0  0  0 
  5 12  1  0  0  0  0 
  6 22  1  0  0  0  0 
  7 10  1  0  0  0  0 
  7  1  1  0  0  0  0 
  7 23  1  1  0  0  0 
  8  9  1  0  0  0  0 
  8  6  2  0  0  0  0 
  9 11  2  0  0  0  0 
 12  6  1  0  0  0  0 
 13  1  1  0  0  0  0 
 14  1  1  0  0  0  0 
 16  2  1  0  0  0  0 
 17  2  1  0  0  0  0 
 19  3  1  0  0  0  0 
 20  4  1  0  0  0  0 
 21  5  1  0  0  0  0 
 24 10  1  0  0  0  0 
M  END 
>  <HBA> 
3 
 
>  <HBD> 
1 
 
>  <TPSA> 
50.44 
 
>  <cid> 
36284 
 
>  <dipole> 
2.9 
 
>  <excitation_energy_1> 
3.989 
 
>  <excitation_energy_2> 
4.831 
 
>  <excitation_energy_3> 
5.396 
 
>  <excitation_energy_4> 
5.924 
 
>  <homo_energy> 
-6.528 
 
>  <homo_lumo_gap> 
5.445 
 
>  <logP> 
1.623 
 
>  <lumo_energy> 
-1.083 
 
>  <melting_point> 
54.07 
 
>  <molecular_refractivity> 
44.49 
 
>  <oscillator_strength_1> 
0.0 
 
>  <oscillator_strength_2> 
0.064 
 
>  <oscillator_strength_3> 
0.0011 
 
>  <oscillator_strength_4> 
0.0868 
 
>  <open_babel_can_smiles> 
C[C@@H](CCC(=O)c1cocc1)O 
 
>  <mulliken_charges> 
24 
1   -0.461286 
2   -0.261093 
3   -0.372113 
4   -0.209634 
5   0.072989 
6   0.084183 
7   0.126791 
8   0.021283 
9   0.410987 
10   -0.622047 
11   -0.484651 
12   -0.390443 
13   0.151729 
14   0.12689 
15   0.158326 
16   0.155235 
17   0.113202 
18   0.179101 
19   0.158381 
20   0.150036 
21   0.166162 
22   0.185293 
23   0.162246 
24   0.378433 
 
>  <lowdin_charges> 
24 
1   -0.456992 
2   -0.289509 
3   -0.309922 
4   -0.203676 
5   -0.080692 
6   -0.038862 
7   -0.000681 
8   -0.090468 
9   0.163582 
10   -0.471231 
11   -0.257193 
12   -0.076095 
13   0.155714 
14   0.141527 
15   0.15719 
16   0.157639 
17   0.137829 
18   0.169755 
19   0.161001 
20   0.175811 
21   0.176943 
22   0.18685 
23   0.155359 
24   0.336121 
 
$$$$ 
 
