PCCDB-ID:  20111 
public computational chemistry database (PCCDB) project, http://pccdb.org 
 
 28 27  0  0  0  0  0  0  0  0999 V2000 
    0.2660   -3.0428    3.6297 C   0  0  0  0  0  0  0  0  0  0  0  0 
    1.4973   -2.8824    2.7324 C   0  0  0  0  0  0  0  0  0  0  0  0 
    2.7932   -3.3399    3.4146 C   0  0  0  0  0  0  0  0  0  0  0  0 
    7.7891   -5.4216    3.5400 C   0  0  0  0  0  0  0  0  0  0  0  0 
    7.5778   -3.9081    3.3427 C   0  0  0  0  0  0  0  0  0  0  0  0 
    6.7678   -6.1511    4.4237 C   0  0  0  0  0  0  0  0  0  0  0  0 
    4.0160   -3.1806    2.5207 C   0  0  0  0  0  0  0  0  0  0  0  0 
    6.3823   -3.4743    2.4954 C   0  0  0  0  0  0  0  0  0  0  0  0 
    5.4912   -6.2942    3.8304 O   0  0  0  0  0  0  0  0  0  0  0  0 
    5.1713   -3.6054    3.2393 O   0  0  0  0  0  0  0  0  0  0  0  0 
   -0.6444   -2.7098    3.1190 H   0  0  0  0  0  0  0  0  0  0  0  0 
    0.3673   -2.4547    4.5499 H   0  0  0  0  0  0  0  0  0  0  0  0 
    0.1222   -4.0903    3.9205 H   0  0  0  0  0  0  0  0  0  0  0  0 
    1.5948   -1.8300    2.4305 H   0  0  0  0  0  0  0  0  0  0  0  0 
    1.3504   -3.4542    1.8054 H   0  0  0  0  0  0  0  0  0  0  0  0 
    2.7055   -4.3934    3.7125 H   0  0  0  0  0  0  0  0  0  0  0  0 
    2.9565   -2.7655    4.3359 H   0  0  0  0  0  0  0  0  0  0  0  0 
    8.7825   -5.5622    3.9899 H   0  0  0  0  0  0  0  0  0  0  0  0 
    7.8144   -5.9206    2.5612 H   0  0  0  0  0  0  0  0  0  0  0  0 
    8.4714   -3.5003    2.8511 H   0  0  0  0  0  0  0  0  0  0  0  0 
    7.5061   -3.4049    4.3169 H   0  0  0  0  0  0  0  0  0  0  0  0 
    6.7043   -5.6445    5.4038 H   0  0  0  0  0  0  0  0  0  0  0  0 
    7.1300   -7.1680    4.6146 H   0  0  0  0  0  0  0  0  0  0  0  0 
    4.1415   -2.1278    2.2185 H   0  0  0  0  0  0  0  0  0  0  0  0 
    3.9068   -3.7760    1.5991 H   0  0  0  0  0  0  0  0  0  0  0  0 
    6.3218   -4.0724    1.5715 H   0  0  0  0  0  0  0  0  0  0  0  0 
    6.4998   -2.4195    2.2009 H   0  0  0  0  0  0  0  0  0  0  0  0 
    5.1496   -5.3874    3.7058 H   0  0  0  0  0  0  0  0  0  0  0  0 
  1 13  1  0  0  0  0 
  1 12  1  0  0  0  0 
  2  3  1  0  0  0  0 
  2  1  1  0  0  0  0 
  3 16  1  0  0  0  0 
  3 17  1  0  0  0  0 
  4 18  1  0  0  0  0 
  4  6  1  0  0  0  0 
  5  4  1  0  0  0  0 
  5 21  1  0  0  0  0 
  6 23  1  0  0  0  0 
  6 22  1  0  0  0  0 
  7 10  1  0  0  0  0 
  7  3  1  0  0  0  0 
  8 10  1  0  0  0  0 
  8  5  1  0  0  0  0 
  9  6  1  0  0  0  0 
 11  1  1  0  0  0  0 
 14  2  1  0  0  0  0 
 15  2  1  0  0  0  0 
 19  4  1  0  0  0  0 
 20  5  1  0  0  0  0 
 24  7  1  0  0  0  0 
 25  7  1  0  0  0  0 
 26  8  1  0  0  0  0 
 27  8  1  0  0  0  0 
 28  9  1  0  0  0  0 
M  END 
>  <HBA> 
2 
 
>  <HBD> 
1 
 
>  <TPSA> 
29.46 
 
>  <cid> 
20111 
 
>  <dipole> 
2.8 
 
>  <excitation_energy_1> 
6.384 
 
>  <excitation_energy_2> 
6.684 
 
>  <excitation_energy_3> 
6.809 
 
>  <excitation_energy_4> 
6.833 
 
>  <homo_energy> 
-6.482 
 
>  <homo_lumo_gap> 
8.626 
 
>  <logP> 
1.576 
 
>  <lumo_energy> 
2.144 
 
>  <melting_point> 
-18.22 
 
>  <molecular_refractivity> 
42.82 
 
>  <oscillator_strength_1> 
0.0073 
 
>  <oscillator_strength_2> 
0.0173 
 
>  <oscillator_strength_3> 
0.0197 
 
>  <oscillator_strength_4> 
0.0022 
 
>  <open_babel_can_smiles> 
CCCCOCCCCO 
 
>  <mulliken_charges> 
28 
1   -0.441315 
2   -0.257878 
3   -0.276226 
4   -0.272873 
5   -0.28496 
6   -0.022028 
7   -0.010241 
8   -0.017332 
9   -0.658627 
10   -0.498332 
11   0.144853 
12   0.144916 
13   0.14831 
14   0.133415 
15   0.136457 
16   0.154335 
17   0.146723 
18   0.12661 
19   0.138567 
20   0.138336 
21   0.147987 
22   0.10822 
23   0.133495 
24   0.126166 
25   0.129669 
26   0.13193 
27   0.127772 
28   0.422051 
 
>  <lowdin_charges> 
28 
1   -0.441982 
2   -0.270514 
3   -0.281691 
4   -0.295083 
5   -0.287637 
6   -0.13298 
7   -0.128412 
8   -0.13094 
9   -0.49691 
10   -0.275491 
11   0.151405 
12   0.14837 
13   0.148794 
14   0.138644 
15   0.141564 
16   0.150235 
17   0.149216 
18   0.145061 
19   0.144275 
20   0.152732 
21   0.149913 
22   0.118513 
23   0.140798 
24   0.129199 
25   0.131238 
26   0.132782 
27   0.13246 
28   0.336439 
 
$$$$ 
 
