PCCDB-ID:  10026 
public computational chemistry database (PCCDB) project, http://pccdb.org 
 
 19 18  0  0  0  0  0  0  0  0999 V2000 
    0.8272   -0.0299    0.0140 C   0  0  0  0  0  0  0  0  0  0  0  0 
    2.3569    0.0394   -0.0257 C   0  0  0  0  0  0  0  0  0  0  0  0 
    2.9363    1.0959    0.9242 C   0  0  0  0  0  0  0  0  0  0  0  0 
    4.4687    1.1671    0.8805 C   0  0  0  0  0  0  0  0  0  0  0  0 
    5.0251    2.2133    1.8357 C   0  0  0  0  0  0  0  0  0  0  0  0 
    7.0477    3.1137    2.6158 N   0  0  0  0  0  0  0  0  0  0  0  0 
    8.2270    3.1077    2.5139 O   0  0  0  0  0  0  0  0  0  0  0  0 
    6.4648    2.1946    1.7102 O   0  0  0  0  0  0  0  0  0  0  0  0 
    0.4451   -0.7919   -0.6744 H   0  0  0  0  0  0  0  0  0  0  0  0 
    0.3788    0.9301   -0.2697 H   0  0  0  0  0  0  0  0  0  0  0  0 
    0.4670   -0.2790    1.0197 H   0  0  0  0  0  0  0  0  0  0  0  0 
    2.6889    0.2550   -1.0509 H   0  0  0  0  0  0  0  0  0  0  0  0 
    2.7759   -0.9441    0.2293 H   0  0  0  0  0  0  0  0  0  0  0  0 
    2.6065    0.8788    1.9509 H   0  0  0  0  0  0  0  0  0  0  0  0 
    2.5155    2.0799    0.6703 H   0  0  0  0  0  0  0  0  0  0  0  0 
    4.8051    1.4024   -0.1374 H   0  0  0  0  0  0  0  0  0  0  0  0 
    4.8988    0.1901    1.1357 H   0  0  0  0  0  0  0  0  0  0  0  0 
    4.7501    1.9917    2.8737 H   0  0  0  0  0  0  0  0  0  0  0  0 
    4.6545    3.2153    1.5881 H   0  0  0  0  0  0  0  0  0  0  0  0 
  1 11  1  0  0  0  0 
  2  1  1  0  0  0  0 
  2 13  1  0  0  0  0 
  2  3  1  0  0  0  0 
  3 14  1  0  0  0  0 
  4  3  1  0  0  0  0 
  4 17  1  0  0  0  0 
  4  5  1  0  0  0  0 
  5 18  1  0  0  0  0 
  7  6  1  0  0  0  0 
  8  5  1  0  0  0  0 
  8  6  1  0  0  0  0 
  9  1  1  0  0  0  0 
 10  1  1  0  0  0  0 
 12  2  1  0  0  0  0 
 15  3  1  0  0  0  0 
 16  4  1  0  0  0  0 
 19  5  1  0  0  0  0 
M  RAD  2   6   2   7   2 
M  END 
>  <HBA> 
1 
 
>  <HBD> 
0 
 
>  <TPSA> 
38.66 
 
>  <cid> 
10026 
 
>  <dipole> 
2.95 
 
>  <excitation_energy_1> 
3.291 
 
>  <excitation_energy_2> 
5.476 
 
>  <excitation_energy_3> 
6.173 
 
>  <excitation_energy_4> 
6.198 
 
>  <homo_energy> 
-7.214 
 
>  <homo_lumo_gap> 
5.187 
 
>  <logP> 
1.875 
 
>  <lumo_energy> 
-2.027 
 
>  <melting_point> 
-13.45 
 
>  <molecular_refractivity> 
31.97 
 
>  <oscillator_strength_1> 
0.0013 
 
>  <oscillator_strength_2> 
0.0622 
 
>  <oscillator_strength_3> 
0.0001 
 
>  <oscillator_strength_4> 
0.0054 
 
>  <open_babel_can_smiles> 
CCCCCO[N][O] 
 
>  <mulliken_charges> 
19 
1   -0.443164 
2   -0.247523 
3   -0.257914 
4   -0.280648 
5   -0.022921 
6   0.287115 
7   -0.243794 
8   -0.371974 
9   0.146407 
10   0.143537 
11   0.143565 
12   0.135636 
13   0.135622 
14   0.133424 
15   0.133521 
16   0.153129 
17   0.152829 
18   0.151838 
19   0.151317 
 
>  <lowdin_charges> 
19 
1   -0.444847 
2   -0.269377 
3   -0.273165 
4   -0.280112 
5   -0.137186 
6   0.13097 
7   -0.127361 
8   -0.200213 
9   0.152997 
10   0.147417 
11   0.146908 
12   0.140693 
13   0.14125 
14   0.13939 
15   0.140039 
16   0.151337 
17   0.151747 
18   0.144666 
19   0.144848 
 
$$$$ 
 
