PCCDB-ID:  22506 
public computational chemistry database (PCCDB) project, http://pccdb.org 
 
 30 30  0  0  0  0  0  0  0  0999 V2000 
    0.9793   -0.3672    0.5118 C   0  0  0  0  0  0  0  0  0  0  0  0 
    2.3938   -0.1011   -1.5547 C   0  0  0  0  0  0  0  0  0  0  0  0 
    5.1815    1.9468   -0.3036 C   0  0  0  0  0  0  0  0  0  0  0  0 
    4.6132    2.1520    2.1603 C   0  0  0  0  0  0  0  0  0  0  0  0 
    4.7439   -1.2337    0.3132 C   0  0  0  0  0  0  0  0  0  0  0  0 
    3.2356   -1.4318    0.4311 C   0  0  0  0  0  0  0  0  0  0  0  0 
    5.1403   -0.0779    1.2260 C   0  0  0  0  0  0  0  0  0  0  0  0 
    2.4179   -0.2043   -0.0145 C   0  0  0  0  0  0  0  0  0  0  0  0 
    4.4732    1.2781    0.8931 C   0  0  0  0  0  0  0  0  0  0  0  0 
    2.1710    2.0921    0.3724 N   0  0  0  0  0  0  0  0  0  0  0  0 
    3.0120    1.0651    0.5566 N   0  0  0  0  0  0  0  0  0  0  0  0 
    2.6017    3.2261    0.5783 O   0  0  0  0  0  0  0  0  0  0  0  0 
    0.5872   -1.3378    0.1863 H   0  0  0  0  0  0  0  0  0  0  0  0 
    0.3204    0.4192    0.1420 H   0  0  0  0  0  0  0  0  0  0  0  0 
    0.9661   -0.3413    1.6064 H   0  0  0  0  0  0  0  0  0  0  0  0 
    1.9090   -0.9859   -1.9833 H   0  0  0  0  0  0  0  0  0  0  0  0 
    3.3999   -0.0293   -1.9798 H   0  0  0  0  0  0  0  0  0  0  0  0 
    1.8305    0.7844   -1.8624 H   0  0  0  0  0  0  0  0  0  0  0  0 
    6.2163    2.1830   -0.0292 H   0  0  0  0  0  0  0  0  0  0  0  0 
    4.6793    2.8757   -0.5790 H   0  0  0  0  0  0  0  0  0  0  0  0 
    5.2073    1.2879   -1.1776 H   0  0  0  0  0  0  0  0  0  0  0  0 
    5.6439    2.0652    2.5262 H   0  0  0  0  0  0  0  0  0  0  0  0 
    3.9456    1.7891    2.9493 H   0  0  0  0  0  0  0  0  0  0  0  0 
    4.3915    3.2000    1.9732 H   0  0  0  0  0  0  0  0  0  0  0  0 
    5.0375   -1.0394   -0.7260 H   0  0  0  0  0  0  0  0  0  0  0  0 
    5.2689   -2.1465    0.6193 H   0  0  0  0  0  0  0  0  0  0  0  0 
    2.9955   -1.6616    1.4785 H   0  0  0  0  0  0  0  0  0  0  0  0 
    2.8950   -2.2882   -0.1627 H   0  0  0  0  0  0  0  0  0  0  0  0 
    6.2246    0.0870    1.2130 H   0  0  0  0  0  0  0  0  0  0  0  0 
    4.8798   -0.3537    2.2570 H   0  0  0  0  0  0  0  0  0  0  0  0 
  1 15  1  0  0  0  0 
  2  8  1  0  0  0  0 
  3 19  1  0  0  0  0 
  3  9  1  0  0  0  0 
  4 22  1  0  0  0  0 
  4 23  1  0  0  0  0 
  5  6  1  0  0  0  0 
  5 26  1  0  0  0  0 
  5  7  1  0  0  0  0 
  6 27  1  0  0  0  0 
  7 30  1  0  0  0  0 
  8  6  1  0  0  0  0 
  8  1  1  0  0  0  0 
  8 11  1  0  0  0  0 
  9  7  1  0  0  0  0 
  9  4  1  0  0  0  0 
 10 11  1  0  0  0  0 
 10 12  2  0  0  0  0 
 11  9  1  0  0  0  0 
 13  1  1  0  0  0  0 
 14  1  1  0  0  0  0 
 16  2  1  0  0  0  0 
 17  2  1  0  0  0  0 
 18  2  1  0  0  0  0 
 20  3  1  0  0  0  0 
 21  3  1  0  0  0  0 
 24  4  1  0  0  0  0 
 25  5  1  0  0  0  0 
 28  6  1  0  0  0  0 
 29  7  1  0  0  0  0 
M  END 
>  <HBA> 
3 
 
>  <HBD> 
0 
 
>  <TPSA> 
32.67 
 
>  <cid> 
22506 
 
>  <dipole> 
3.96 
 
>  <excitation_energy_1> 
3.076 
 
>  <excitation_energy_2> 
5.261 
 
>  <excitation_energy_3> 
5.643 
 
>  <excitation_energy_4> 
5.699 
 
>  <homo_energy> 
-5.614 
 
>  <homo_lumo_gap> 
4.895 
 
>  <logP> 
2.649 
 
>  <lumo_energy> 
-0.718 
 
>  <melting_point> 
37.76 
 
>  <molecular_refractivity> 
54.89 
 
>  <oscillator_strength_1> 
0.0009 
 
>  <oscillator_strength_2> 
0.0022 
 
>  <oscillator_strength_3> 
0.0505 
 
>  <oscillator_strength_4> 
0.0365 
 
>  <open_babel_can_smiles> 
O=NN1C(C)(C)CCCC1(C)C 
 
>  <mulliken_charges> 
30 
1   -0.44466 
2   -0.448433 
3   -0.459052 
4   -0.454594 
5   -0.280755 
6   -0.276424 
7   -0.279873 
8   0.216965 
9   0.224727 
10   0.161365 
11   -0.281445 
12   -0.393875 
13   0.138291 
14   0.177725 
15   0.149225 
16   0.143678 
17   0.148708 
18   0.171107 
19   0.143482 
20   0.184698 
21   0.14228 
22   0.134966 
23   0.146183 
24   0.190864 
25   0.140541 
26   0.142152 
27   0.13922 
28   0.140957 
29   0.141964 
30   0.140014 
 
>  <lowdin_charges> 
30 
1   -0.444412 
2   -0.45263 
3   -0.452852 
4   -0.447721 
5   -0.282311 
6   -0.277967 
7   -0.274605 
8   0.076553 
9   0.072702 
10   0.049941 
11   -0.058158 
12   -0.272345 
13   0.149658 
14   0.167792 
15   0.152225 
16   0.152655 
17   0.149866 
18   0.164289 
19   0.151661 
20   0.170529 
21   0.147601 
22   0.146576 
23   0.154232 
24   0.170876 
25   0.142107 
26   0.151796 
27   0.144688 
28   0.152534 
29   0.149801 
30   0.144918 
 
$$$$ 
 
