PCCDB-ID:  12129 
public computational chemistry database (PCCDB) project, http://pccdb.org 
 
 23 22  0  0  0  0  0  0  0  0999 V2000 
    0.8892    1.2309    0.8724 C   0  0  0  0  0  0  0  0  0  0  0  0 
    4.7927    2.7162    4.5978 C   0  0  0  0  0  0  0  0  0  0  0  0 
    2.0829    0.6228    1.5884 C   0  0  0  0  0  0  0  0  0  0  0  0 
    4.7953    2.4947    3.0943 C   0  0  0  0  0  0  0  0  0  0  0  0 
    5.5811    1.0614    0.5599 C   0  0  0  0  0  0  0  0  0  0  0  0 
    4.4798    0.6504    1.5475 C   0  0  0  0  0  0  0  0  0  0  0  0 
    5.4599    2.4030    0.1227 O   0  0  0  0  0  0  0  0  0  0  0  0 
    3.2736    1.1113    0.9673 O   0  0  0  0  0  0  0  0  0  0  0  0 
    4.6538    1.0831    2.8734 O   0  0  0  0  0  0  0  0  0  0  0  0 
   -0.0446    0.8698    1.3171 H   0  0  0  0  0  0  0  0  0  0  0  0 
    0.8946    0.9616   -0.1889 H   0  0  0  0  0  0  0  0  0  0  0  0 
    0.9077    2.3232    0.9496 H   0  0  0  0  0  0  0  0  0  0  0  0 
    4.9101    3.7817    4.8249 H   0  0  0  0  0  0  0  0  0  0  0  0 
    5.6156    2.1691    5.0697 H   0  0  0  0  0  0  0  0  0  0  0  0 
    3.8537    2.3680    5.0411 H   0  0  0  0  0  0  0  0  0  0  0  0 
    2.0624   -0.4765    1.5192 H   0  0  0  0  0  0  0  0  0  0  0  0 
    2.0840    0.8870    2.6530 H   0  0  0  0  0  0  0  0  0  0  0  0 
    5.7256    2.8581    2.6426 H   0  0  0  0  0  0  0  0  0  0  0  0 
    3.9670    3.0328    2.6163 H   0  0  0  0  0  0  0  0  0  0  0  0 
    5.5490    0.3611   -0.2910 H   0  0  0  0  0  0  0  0  0  0  0  0 
    6.5571    0.9610    1.0443 H   0  0  0  0  0  0  0  0  0  0  0  0 
    4.4596   -0.4463    1.6356 H   0  0  0  0  0  0  0  0  0  0  0  0 
    4.5224    2.5138   -0.1100 H   0  0  0  0  0  0  0  0  0  0  0  0 
  1 12  1  0  0  0  0 
  1 10  1  0  0  0  0 
  1  3  1  0  0  0  0 
  2 13  1  0  0  0  0 
  2 15  1  0  0  0  0 
  2 14  1  0  0  0  0 
  3 17  1  0  0  0  0 
  4  2  1  0  0  0  0 
  5 21  1  0  0  0  0 
  5  6  1  0  0  0  0 
  6 22  1  0  0  0  0 
  6  9  1  0  0  0  0 
  7  5  1  0  0  0  0 
  8  6  1  0  0  0  0 
  8  3  1  0  0  0  0 
  9  4  1  0  0  0  0 
 11  1  1  0  0  0  0 
 16  3  1  0  0  0  0 
 18  4  1  0  0  0  0 
 19  4  1  0  0  0  0 
 20  5  1  0  0  0  0 
 23  7  1  0  0  0  0 
M  END 
>  <HBA> 
3 
 
>  <HBD> 
1 
 
>  <TPSA> 
38.69 
 
>  <cid> 
12129 
 
>  <dipole> 
1.84 
 
>  <excitation_energy_1> 
6.415 
 
>  <excitation_energy_2> 
6.649 
 
>  <excitation_energy_3> 
6.858 
 
>  <excitation_energy_4> 
6.983 
 
>  <homo_energy> 
-6.71 
 
>  <homo_lumo_gap> 
8.855 
 
>  <logP> 
0.378 
 
>  <lumo_energy> 
2.144 
 
>  <melting_point> 
-25.84 
 
>  <molecular_refractivity> 
34.29 
 
>  <oscillator_strength_1> 
0.004 
 
>  <oscillator_strength_2> 
0.019 
 
>  <oscillator_strength_3> 
0.0075 
 
>  <oscillator_strength_4> 
0.0042 
 
>  <open_babel_can_smiles> 
OCC(OCC)OCC 
 
>  <mulliken_charges> 
23 
1   -0.458452 
2   -0.454414 
3   -0.014368 
4   -0.026684 
5   -0.057227 
6   0.344776 
7   -0.623801 
8   -0.506334 
9   -0.485374 
10   0.148735 
11   0.157546 
12   0.157099 
13   0.143678 
14   0.155966 
15   0.150882 
16   0.126452 
17   0.148021 
18   0.152481 
19   0.13138 
20   0.12846 
21   0.154381 
22   0.120089 
23   0.406708 
 
>  <lowdin_charges> 
23 
1   -0.446113 
2   -0.448974 
3   -0.120978 
4   -0.131546 
5   -0.152437 
6   0.078876 
7   -0.463431 
8   -0.282618 
9   -0.272721 
10   0.157253 
11   0.154743 
12   0.154007 
13   0.152514 
14   0.156578 
15   0.152753 
16   0.128289 
17   0.139187 
18   0.143975 
19   0.134992 
20   0.13631 
21   0.153746 
22   0.131509 
23   0.344087 
 
$$$$ 
 
