PCCDB-ID:  18492 
public computational chemistry database (PCCDB) project, http://pccdb.org 
 
 37 37  0  0  0  0  0  0  0  0999 V2000 
    1.2365    0.0074    3.5902 C   0  0  0  0  0  0  0  0  0  0  0  0 
    2.8674    1.3026   -0.4869 C   0  0  0  0  0  0  0  0  0  0  0  0 
   10.2669   -2.8556   -0.0541 C   0  0  0  0  0  0  0  0  0  0  0  0 
    1.8899   -0.9752    2.6130 C   0  0  0  0  0  0  0  0  0  0  0  0 
    2.6597    0.8691    0.9703 C   0  0  0  0  0  0  0  0  0  0  0  0 
    8.4494   -1.7247    1.3149 C   0  0  0  0  0  0  0  0  0  0  0  0 
    7.8175   -2.8154   -0.7188 C   0  0  0  0  0  0  0  0  0  0  0  0 
    7.1229   -1.3586    1.5348 C   0  0  0  0  0  0  0  0  0  0  0  0 
    6.4875   -2.4561   -0.5198 C   0  0  0  0  0  0  0  0  0  0  0  0 
    8.8281   -2.4597    0.1859 C   0  0  0  0  0  0  0  0  0  0  0  0 
    6.1267   -1.7210    0.6185 C   0  0  0  0  0  0  0  0  0  0  0  0 
    2.5905   -1.6234    0.2811 C   0  0  0  0  0  0  0  0  0  0  0  0 
    1.9592   -0.4954    1.1444 C   0  0  0  0  0  0  0  0  0  0  0  0 
    4.8052   -1.2786    0.8329 N   0  0  0  0  0  0  0  0  0  0  0  0 
    3.8110   -1.9801    0.1536 N   0  0  0  0  0  0  0  0  0  0  0  0 
    1.6797   -2.3669   -0.3938 O   0  0  0  0  0  0  0  0  0  0  0  0 
    0.5748   -0.3701    0.7283 O   0  0  0  0  0  0  0  0  0  0  0  0 
    1.1298   -0.4594    4.5753 H   0  0  0  0  0  0  0  0  0  0  0  0 
    0.2405    0.2955    3.2419 H   0  0  0  0  0  0  0  0  0  0  0  0 
    1.8327    0.9167    3.7212 H   0  0  0  0  0  0  0  0  0  0  0  0 
    3.3248    2.2966   -0.5218 H   0  0  0  0  0  0  0  0  0  0  0  0 
    1.9261    1.3721   -1.0508 H   0  0  0  0  0  0  0  0  0  0  0  0 
    3.5253    0.6065   -1.0146 H   0  0  0  0  0  0  0  0  0  0  0  0 
   10.9145   -2.5157    0.7610 H   0  0  0  0  0  0  0  0  0  0  0  0 
   10.6565   -2.4252   -0.9858 H   0  0  0  0  0  0  0  0  0  0  0  0 
   10.3804   -3.9445   -0.1341 H   0  0  0  0  0  0  0  0  0  0  0  0 
    1.3313   -1.9190    2.6119 H   0  0  0  0  0  0  0  0  0  0  0  0 
    2.9023   -1.2238    2.9570 H   0  0  0  0  0  0  0  0  0  0  0  0 
    2.0495    1.6108    1.4987 H   0  0  0  0  0  0  0  0  0  0  0  0 
    3.6334    0.8481    1.4655 H   0  0  0  0  0  0  0  0  0  0  0  0 
    9.2042   -1.4338    2.0425 H   0  0  0  0  0  0  0  0  0  0  0  0 
    8.0759   -3.3916   -1.6055 H   0  0  0  0  0  0  0  0  0  0  0  0 
    6.8605   -0.7856    2.4228 H   0  0  0  0  0  0  0  0  0  0  0  0 
    5.7170   -2.7470   -1.2236 H   0  0  0  0  0  0  0  0  0  0  0  0 
    4.6126   -1.1067    1.8160 H   0  0  0  0  0  0  0  0  0  0  0  0 
    0.8171   -1.9443   -0.2019 H   0  0  0  0  0  0  0  0  0  0  0  0 
    0.5392    0.2787    0.0063 H   0  0  0  0  0  0  0  0  0  0  0  0 
  1 20  1  0  0  0  0 
  1 18  1  0  0  0  0 
  2  5  1  0  0  0  0 
  3 10  1  0  0  0  0 
  3 24  1  0  0  0  0 
  4 28  1  0  0  0  0 
  4  1  1  0  0  0  0 
  5 13  1  0  0  0  0 
  5 30  1  0  0  0  0 
  5 29  1  0  0  0  0 
  6  8  1  0  0  0  0 
  6 31  1  0  0  0  0 
  7  9  2  0  0  0  0 
  7 10  1  0  0  0  0 
  8 33  1  0  0  0  0 
  9 11  1  0  0  0  0 
 10  6  2  0  0  0  0 
 11 14  1  0  0  0  0 
 11  8  2  0  0  0  0 
 12 13  1  0  0  0  0 
 13  4  1  0  0  0  0 
 14 35  1  0  0  0  0 
 15 12  2  0  0  0  0 
 15 14  1  0  0  0  0 
 16 36  1  0  0  0  0 
 16 12  1  0  0  0  0 
 17 13  1  0  0  0  0 
 19  1  1  0  0  0  0 
 21  2  1  0  0  0  0 
 22  2  1  0  0  0  0 
 23  2  1  0  0  0  0 
 25  3  1  0  0  0  0 
 26  3  1  0  0  0  0 
 27  4  1  0  0  0  0 
 32  7  1  0  0  0  0 
 34  9  1  0  0  0  0 
 37 17  1  0  0  0  0 
M  END 
>  <HBA> 
4 
 
>  <HBD> 
3 
 
>  <TPSA> 
61.36 
 
>  <cid> 
18492 
 
>  <dipole> 
4.17 
 
>  <excitation_energy_1> 
4.061 
 
>  <excitation_energy_2> 
4.207 
 
>  <excitation_energy_3> 
4.453 
 
>  <excitation_energy_4> 
4.634 
 
>  <homo_energy> 
-4.857 
 
>  <homo_lumo_gap> 
5.151 
 
>  <logP> 
2.453 
 
>  <lumo_energy> 
0.294 
 
>  <melting_point> 
117.6 
 
>  <molecular_refractivity> 
68.95 
 
>  <oscillator_strength_1> 
0.0095 
 
>  <oscillator_strength_2> 
0.0237 
 
>  <oscillator_strength_3> 
0.0081 
 
>  <oscillator_strength_4> 
0.3775 
 
>  <open_babel_can_smiles> 
CCC(/C(=N\Nc1ccc(cc1)C)/O)(CC)O 
 
>  <mulliken_charges> 
37 
1   -0.456289 
2   -0.471385 
3   -0.530223 
4   -0.257864 
5   -0.288373 
6   -0.192911 
7   -0.193608 
8   -0.189109 
9   -0.151976 
10   0.180539 
11   0.34099 
12   0.487043 
13   0.220735 
14   -0.559787 
15   -0.319995 
16   -0.604434 
17   -0.670773 
18   0.152233 
19   0.169361 
20   0.147546 
21   0.159865 
22   0.124686 
23   0.193962 
24   0.148569 
25   0.156412 
26   0.156671 
27   0.159743 
28   0.136492 
29   0.153328 
30   0.154978 
31   0.114789 
32   0.117963 
33   0.106895 
34   0.154249 
35   0.318422 
36   0.422288 
37   0.408968 
 
>  <lowdin_charges> 
37 
1   -0.448154 
2   -0.451318 
3   -0.440917 
4   -0.273508 
5   -0.293042 
6   -0.16376 
7   -0.155797 
8   -0.200621 
9   -0.186412 
10   -0.023404 
11   0.048539 
12   0.082569 
13   0.092074 
14   -0.224778 
15   -0.146964 
16   -0.368098 
17   -0.454149 
18   0.156549 
19   0.160283 
20   0.149209 
21   0.161036 
22   0.135701 
23   0.173759 
24   0.15405 
25   0.156527 
26   0.154669 
27   0.159129 
28   0.143645 
29   0.154127 
30   0.159453 
31   0.152312 
32   0.152772 
33   0.147505 
34   0.174264 
35   0.255838 
36   0.356285 
37   0.350627 
 
$$$$ 
 
