PCCDB-ID:  66305 
public computational chemistry database (PCCDB) project, http://pccdb.org 
 
 15 14  0  0  0  0  0  0  0  0999 V2000 
    1.6346    0.4342    0.3863 C   0  0  0  0  0  0  0  0  0  0  0  0 
    5.8836   -2.2829    0.9634 C   0  0  0  0  0  0  0  0  0  0  0  0 
    2.9908   -0.2408    0.4909 C   0  0  0  0  0  0  0  0  0  0  0  0 
    5.3599   -0.4372   -1.1702 O   0  0  0  0  0  0  0  0  0  0  0  0 
    5.1380   -2.7608   -0.1719 O   0  0  0  0  0  0  0  0  0  0  0  0 
    3.0506   -1.2780   -0.5230 O   0  0  0  0  0  0  0  0  0  0  0  0 
    4.5095   -1.6436   -1.2458 S   0  0  1  0  0  0  0  0  0  0  0  0 
    1.5432    1.2053    1.1601 H   0  0  0  0  0  0  0  0  0  0  0  0 
    0.8251   -0.2896    0.5221 H   0  0  0  0  0  0  0  0  0  0  0  0 
    1.5151    0.9079   -0.5929 H   0  0  0  0  0  0  0  0  0  0  0  0 
    6.5412   -3.1046    1.2534 H   0  0  0  0  0  0  0  0  0  0  0  0 
    5.2081   -2.0423    1.7918 H   0  0  0  0  0  0  0  0  0  0  0  0 
    6.4774   -1.4041    0.6980 H   0  0  0  0  0  0  0  0  0  0  0  0 
    3.1260   -0.7134    1.4715 H   0  0  0  0  0  0  0  0  0  0  0  0 
    3.8058    0.4702    0.3259 H   0  0  0  0  0  0  0  0  0  0  0  0 
  1  3  1  0  0  0  0 
  1  9  1  0  0  0  0 
  1  8  1  0  0  0  0 
  2 11  1  0  0  0  0 
  2 12  1  0  0  0  0 
  3 14  1  0  0  0  0 
  5  2  1  0  0  0  0 
  6  3  1  0  0  0  0 
  7  4  2  1  0  0  0 
  7  6  1  0  0  0  0 
  7  5  1  0  0  0  0 
 10  1  1  0  0  0  0 
 13  2  1  0  0  0  0 
 15  3  1  0  0  0  0 
M  END 
>  <HBA> 
3 
 
>  <HBD> 
0 
 
>  <TPSA> 
54.74 
 
>  <cid> 
66305 
 
>  <dipole> 
2.33 
 
>  <excitation_energy_1> 
6.593 
 
>  <excitation_energy_2> 
6.79 
 
>  <excitation_energy_3> 
6.975 
 
>  <excitation_energy_4> 
7.055 
 
>  <homo_energy> 
-7.611 
 
>  <homo_lumo_gap> 
7.997 
 
>  <logP> 
1.114 
 
>  <lumo_energy> 
0.386 
 
>  <melting_point> 
-18.47 
 
>  <molecular_refractivity> 
26.98 
 
>  <oscillator_strength_1> 
0.042 
 
>  <oscillator_strength_2> 
0.0031 
 
>  <oscillator_strength_3> 
0.0245 
 
>  <oscillator_strength_4> 
0.0375 
 
>  <open_babel_can_smiles> 
CCO[S@@](=O)OC 
 
>  <mulliken_charges> 
15 
1   -0.448758 
2   -0.242974 
3   -0.065589 
4   -0.588627 
5   -0.536888 
6   -0.546268 
7   1.100999 
8   0.150992 
9   0.164985 
10   0.166537 
11   0.176749 
12   0.156221 
13   0.18696 
14   0.147544 
15   0.178117 
 
>  <lowdin_charges> 
15 
1   -0.446539 
2   -0.29485 
3   -0.138032 
4   -0.603386 
5   -0.427885 
6   -0.432176 
7   1.077269 
8   0.159135 
9   0.160788 
10   0.16135 
11   0.167563 
12   0.148612 
13   0.166333 
14   0.141667 
15   0.160152 
 
$$$$ 
 
