PCCDB-ID:  24127 
public computational chemistry database (PCCDB) project, http://pccdb.org 
 
 30 31  0  0  0  0  0  0  0  0999 V2000 
   -1.4938    0.5147    1.0907 C   0  0  0  0  0  0  0  0  0  0  0  0 
   -0.6801    1.4557    0.4563 C   0  0  0  0  0  0  0  0  0  0  0  0 
   -1.0143   -0.7797    1.2945 C   0  0  0  0  0  0  0  0  0  0  0  0 
    3.8299   -2.2789   -1.3911 C   0  0  0  0  0  0  0  0  0  0  0  0 
    4.9625   -1.5047   -1.1566 C   0  0  0  0  0  0  0  0  0  0  0  0 
    0.6007    1.1077    0.0289 C   0  0  0  0  0  0  0  0  0  0  0  0 
    0.2665   -1.1283    0.8663 C   0  0  0  0  0  0  0  0  0  0  0  0 
    2.5888   -1.8264   -0.9422 C   0  0  0  0  0  0  0  0  0  0  0  0 
    4.8539   -0.2879   -0.4801 C   0  0  0  0  0  0  0  0  0  0  0  0 
    4.0290    3.1929    1.9626 C   0  0  0  0  0  0  0  0  0  0  0  0 
    4.5784    2.0604    1.1071 C   0  0  0  0  0  0  0  0  0  0  0  0 
    1.0968   -0.1932    0.2251 C   0  0  0  0  0  0  0  0  0  0  0  0 
    2.4408   -0.6109   -0.2602 C   0  0  0  0  0  0  0  0  0  0  0  0 
    3.6062    0.1602   -0.0350 C   0  0  0  0  0  0  0  0  0  0  0  0 
    3.2720    2.7072    3.0535 O   0  0  0  0  0  0  0  0  0  0  0  0 
    3.4378    1.3398    0.6401 O   0  0  0  0  0  0  0  0  0  0  0  0 
   -2.4907    0.7891    1.4252 H   0  0  0  0  0  0  0  0  0  0  0  0 
   -1.0454    2.4656    0.2880 H   0  0  0  0  0  0  0  0  0  0  0  0 
   -1.6343   -1.5196    1.7940 H   0  0  0  0  0  0  0  0  0  0  0  0 
    3.9057   -3.2232   -1.9221 H   0  0  0  0  0  0  0  0  0  0  0  0 
    5.9385   -1.8377   -1.4993 H   0  0  0  0  0  0  0  0  0  0  0  0 
    1.2205    1.8443   -0.4702 H   0  0  0  0  0  0  0  0  0  0  0  0 
    0.6398   -2.1326    1.0468 H   0  0  0  0  0  0  0  0  0  0  0  0 
    1.6984   -2.4180   -1.1362 H   0  0  0  0  0  0  0  0  0  0  0  0 
    5.7431    0.3055   -0.3014 H   0  0  0  0  0  0  0  0  0  0  0  0 
    3.4369    3.8703    1.3258 H   0  0  0  0  0  0  0  0  0  0  0  0 
    4.8621    3.7679    2.3806 H   0  0  0  0  0  0  0  0  0  0  0  0 
    5.2165    1.4000    1.7089 H   0  0  0  0  0  0  0  0  0  0  0  0 
    5.1633    2.4545    0.2635 H   0  0  0  0  0  0  0  0  0  0  0  0 
    2.5950    2.1231    2.6727 H   0  0  0  0  0  0  0  0  0  0  0  0 
  1  3  1  0  0  0  0 
  1 17  1  0  0  0  0 
  2  1  2  0  0  0  0 
  3 19  1  0  0  0  0 
  4  5  2  0  0  0  0 
  4  8  1  0  0  0  0 
  5  9  1  0  0  0  0 
  6 12  2  0  0  0  0 
  6  2  1  0  0  0  0 
  7 23  1  0  0  0  0 
  7  3  2  0  0  0  0 
  8 13  2  0  0  0  0 
  9 25  1  0  0  0  0 
  9 14  2  0  0  0  0 
 10 27  1  0  0  0  0 
 10 15  1  0  0  0  0 
 11 28  1  0  0  0  0 
 11 10  1  0  0  0  0 
 12  7  1  0  0  0  0 
 13 14  1  0  0  0  0 
 13 12  1  0  0  0  0 
 14 16  1  0  0  0  0 
 16 11  1  0  0  0  0 
 18  2  1  0  0  0  0 
 20  4  1  0  0  0  0 
 21  5  1  0  0  0  0 
 22  6  1  0  0  0  0 
 24  8  1  0  0  0  0 
 26 10  1  0  0  0  0 
 29 11  1  0  0  0  0 
 30 15  1  0  0  0  0 
M  END 
>  <HBA> 
2 
 
>  <HBD> 
1 
 
>  <TPSA> 
29.46 
 
>  <cid> 
24127 
 
>  <dipole> 
1.62 
 
>  <excitation_energy_1> 
4.555 
 
>  <excitation_energy_2> 
4.914 
 
>  <excitation_energy_3> 
5.021 
 
>  <excitation_energy_4> 
5.374 
 
>  <homo_energy> 
-5.867 
 
>  <homo_lumo_gap> 
5.225 
 
>  <logP> 
2.725 
 
>  <lumo_energy> 
-0.642 
 
>  <melting_point> 
64.65 
 
>  <molecular_refractivity> 
64.34 
 
>  <oscillator_strength_1> 
0.2029 
 
>  <oscillator_strength_2> 
0.0052 
 
>  <oscillator_strength_3> 
0.1304 
 
>  <oscillator_strength_4> 
0.0377 
 
>  <open_babel_can_smiles> 
OCCOc1ccccc1c1ccccc1 
 
>  <mulliken_charges> 
30 
1   -0.126485 
2   -0.138573 
3   -0.134589 
4   -0.132696 
5   -0.13553 
6   -0.159576 
7   -0.170619 
8   -0.184498 
9   -0.193277 
10   -0.039404 
11   -0.052681 
12   0.091041 
13   0.027453 
14   0.33802 
15   -0.617983 
16   -0.541788 
17   0.129402 
18   0.129752 
19   0.12988 
20   0.128448 
21   0.13146 
22   0.136984 
23   0.132585 
24   0.135728 
25   0.136358 
26   0.132653 
27   0.149414 
28   0.153822 
29   0.138097 
30   0.406603 
 
>  <lowdin_charges> 
30 
1   -0.156849 
2   -0.158372 
3   -0.158648 
4   -0.173787 
5   -0.146475 
6   -0.159293 
7   -0.16126 
8   -0.151963 
9   -0.210669 
10   -0.142142 
11   -0.150045 
12   0.000495 
13   -0.030872 
14   0.101808 
15   -0.464279 
16   -0.207974 
17   0.157078 
18   0.15684 
19   0.159289 
20   0.158208 
21   0.158749 
22   0.163826 
23   0.158831 
24   0.162508 
25   0.164148 
26   0.134978 
27   0.153748 
28   0.149278 
29   0.142768 
30   0.350076 
 
$$$$ 
 
