PCCDB-ID:  19542 
public computational chemistry database (PCCDB) project, http://pccdb.org 
 
 14 14  0  0  0  0  0  0  0  0999 V2000 
    2.1611    1.4208   -0.4158 C   0  0  0  0  0  0  0  0  0  0  0  0 
    4.8496   -1.7088    1.7538 C   0  0  0  0  0  0  0  0  0  0  0  0 
    5.4830   -0.3271    1.5414 C   0  0  0  0  0  0  0  0  0  0  0  0 
    2.8890    0.2912    0.0710 O   0  0  0  0  0  0  0  0  0  0  0  0 
    3.4241   -1.5194    1.6927 O   0  0  0  0  0  0  0  0  0  0  0  0 
    4.5237    0.6094    2.0664 O   0  0  0  0  0  0  0  0  0  0  0  0 
    2.9837    0.0789    1.7175 P   0  0  0  0  0  0  0  0  0  0  0  0 
    1.7328    1.1448   -1.3829 H   0  0  0  0  0  0  0  0  0  0  0  0 
    2.8275    2.2808   -0.5510 H   0  0  0  0  0  0  0  0  0  0  0  0 
    1.3480    1.7072    0.2646 H   0  0  0  0  0  0  0  0  0  0  0  0 
    5.0981   -2.1199    2.7391 H   0  0  0  0  0  0  0  0  0  0  0  0 
    5.1436   -2.4246    0.9806 H   0  0  0  0  0  0  0  0  0  0  0  0 
    5.6526   -0.1220    0.4783 H   0  0  0  0  0  0  0  0  0  0  0  0 
    6.4185   -0.1995    2.0912 H   0  0  0  0  0  0  0  0  0  0  0  0 
  1  4  1  0  0  0  0 
  1 10  1  0  0  0  0 
  2 11  1  0  0  0  0 
  3  2  1  0  0  0  0 
  3  6  1  0  0  0  0 
  3 14  1  0  0  0  0 
  4  7  1  0  0  0  0 
  5  7  1  0  0  0  0 
  5  2  1  0  0  0  0 
  7  6  1  0  0  0  0 
  8  1  1  0  0  0  0 
  9  1  1  0  0  0  0 
 12  2  1  0  0  0  0 
 13  3  1  0  0  0  0 
M  END 
>  <HBA> 
3 
 
>  <HBD> 
0 
 
>  <TPSA> 
41.28 
 
>  <cid> 
19542 
 
>  <dipole> 
1.59 
 
>  <excitation_energy_1> 
6.323 
 
>  <excitation_energy_2> 
6.631 
 
>  <excitation_energy_3> 
6.693 
 
>  <excitation_energy_4> 
6.798 
 
>  <homo_energy> 
-6.934 
 
>  <homo_lumo_gap> 
7.549 
 
>  <logP> 
0.906 
 
>  <lumo_energy> 
0.615 
 
>  <melting_point> 
-33.09 
 
>  <molecular_refractivity> 
25.65 
 
>  <oscillator_strength_1> 
0.0525 
 
>  <oscillator_strength_2> 
0.0532 
 
>  <oscillator_strength_3> 
0.0225 
 
>  <oscillator_strength_4> 
0.0515 
 
>  <open_babel_can_smiles> 
COP1OCCO1 
 
>  <mulliken_charges> 
14 
1   -0.212246 
2   -0.042187 
3   -0.085635 
4   -0.549502 
5   -0.557217 
6   -0.5527 
7   0.884857 
8   0.164486 
9   0.155638 
10   0.152638 
11   0.155004 
12   0.159704 
13   0.164645 
14   0.162516 
 
>  <lowdin_charges> 
14 
1   -0.281356 
2   -0.140794 
3   -0.151346 
4   -0.430762 
5   -0.415157 
6   -0.416188 
7   0.763112 
8   0.15642 
9   0.147777 
10   0.15005 
11   0.148104 
12   0.158967 
13   0.150525 
14   0.160647 
 
$$$$ 
 
