PCCDB-ID:  9094 
public computational chemistry database (PCCDB) project, http://pccdb.org 
 
 24 25  0  0  0  0  0  0  0  0999 V2000 
    2.6781   -0.1528   -0.0734 C   0  0  0  0  0  0  0  0  0  0  0  0 
    1.9344    0.9946   -0.7730 C   0  0  0  0  0  0  0  0  0  0  0  0 
    1.7364   -1.3338    0.2033 C   0  0  0  0  0  0  0  0  0  0  0  0 
    0.6952    1.4347    0.0273 C   0  0  0  0  0  0  0  0  0  0  0  0 
    0.4992   -0.8954    1.0067 C   0  0  0  0  0  0  0  0  0  0  0  0 
   -2.0881   -0.7277   -0.7687 C   0  0  0  0  0  0  0  0  0  0  0  0 
   -2.9084    0.2428    0.0849 C   0  0  0  0  0  0  0  0  0  0  0  0 
   -0.2453    0.2584    0.3116 C   0  0  0  0  0  0  0  0  0  0  0  0 
   -0.7989   -0.1571   -0.9323 O   0  0  0  0  0  0  0  0  0  0  0  0 
   -1.7229    0.8075    1.3671 S   0  0  0  0  0  0  0  0  0  0  0  0 
    3.0961    0.2101    0.8777 H   0  0  0  0  0  0  0  0  0  0  0  0 
    3.5289   -0.4809   -0.6838 H   0  0  0  0  0  0  0  0  0  0  0  0 
    1.6176    0.6708   -1.7725 H   0  0  0  0  0  0  0  0  0  0  0  0 
    2.6014    1.8546   -0.9135 H   0  0  0  0  0  0  0  0  0  0  0  0 
    2.2635   -2.1276    0.7474 H   0  0  0  0  0  0  0  0  0  0  0  0 
    1.4062   -1.7662   -0.7500 H   0  0  0  0  0  0  0  0  0  0  0  0 
    0.1348    2.2086   -0.5069 H   0  0  0  0  0  0  0  0  0  0  0  0 
    1.0096    1.8650    0.9870 H   0  0  0  0  0  0  0  0  0  0  0  0 
    0.8018   -0.5556    2.0062 H   0  0  0  0  0  0  0  0  0  0  0  0 
   -0.1847   -1.7373    1.1612 H   0  0  0  0  0  0  0  0  0  0  0  0 
   -2.5040   -0.8563   -1.7725 H   0  0  0  0  0  0  0  0  0  0  0  0 
   -2.0327   -1.7116   -0.2805 H   0  0  0  0  0  0  0  0  0  0  0  0 
   -3.7626   -0.2482    0.5587 H   0  0  0  0  0  0  0  0  0  0  0  0 
   -3.2612    1.0918   -0.5073 H   0  0  0  0  0  0  0  0  0  0  0  0 
  1  3  1  0  0  0  0 
  1 11  1  0  0  0  0 
  2  1  1  0  0  0  0 
  2  4  1  0  0  0  0 
  3 15  1  0  0  0  0 
  3  5  1  0  0  0  0 
  4  8  1  0  0  0  0 
  4 18  1  0  0  0  0 
  5 20  1  0  0  0  0 
  5 19  1  0  0  0  0 
  6 22  1  0  0  0  0 
  6  7  1  0  0  0  0 
  7 23  1  0  0  0  0 
  7 10  1  0  0  0  0 
  8  5  1  0  0  0  0 
  8 10  1  0  0  0  0 
  9  6  1  0  0  0  0 
  9  8  1  0  0  0  0 
 12  1  1  0  0  0  0 
 13  2  1  0  0  0  0 
 14  2  1  0  0  0  0 
 16  3  1  0  0  0  0 
 17  4  1  0  0  0  0 
 21  6  1  0  0  0  0 
 24  7  1  0  0  0  0 
M  END 
>  <HBA> 
2 
 
>  <HBD> 
0 
 
>  <TPSA> 
34.53 
 
>  <cid> 
9094 
 
>  <dipole> 
1.34 
 
>  <excitation_energy_1> 
4.856 
 
>  <excitation_energy_2> 
5.425 
 
>  <excitation_energy_3> 
5.874 
 
>  <excitation_energy_4> 
5.992 
 
>  <homo_energy> 
-5.924 
 
>  <homo_lumo_gap> 
6.523 
 
>  <logP> 
2.41 
 
>  <lumo_energy> 
0.599 
 
>  <melting_point> 
28.31 
 
>  <molecular_refractivity> 
45.06 
 
>  <oscillator_strength_1> 
0.0002 
 
>  <oscillator_strength_2> 
0.006 
 
>  <oscillator_strength_3> 
0.0096 
 
>  <oscillator_strength_4> 
0.0084 
 
>  <open_babel_can_smiles> 
C1CCC2(CC1)OCCS2 
 
>  <mulliken_charges> 
24 
1   -0.259981 
2   -0.266285 
3   -0.262943 
4   -0.258828 
5   -0.257679 
6   -0.030015 
7   -0.425113 
8   0.136129 
9   -0.472549 
10   0.048048 
11   0.126562 
12   0.132553 
13   0.149999 
14   0.132715 
15   0.132426 
16   0.14446 
17   0.151482 
18   0.139286 
19   0.140744 
20   0.142509 
21   0.157362 
22   0.142529 
23   0.175482 
24   0.181106 
 
>  <lowdin_charges> 
24 
1   -0.278887 
2   -0.280313 
3   -0.282362 
4   -0.284162 
5   -0.291675 
6   -0.133454 
7   -0.384347 
8   0.03923 
9   -0.255587 
10   0.049817 
11   0.136621 
12   0.14563 
13   0.148095 
14   0.145829 
15   0.146426 
16   0.146312 
17   0.158534 
18   0.149069 
19   0.14967 
20   0.151518 
21   0.155712 
22   0.136322 
23   0.170058 
24   0.161946 
 
$$$$ 
 
