PCCDB-ID:  48100 
public computational chemistry database (PCCDB) project, http://pccdb.org 
 
 38 38  0  0  0  0  0  0  0  0999 V2000 
    8.3960   -7.8798   -1.0181 C   0  0  0  0  0  0  0  0  0  0  0  0 
    8.7326   -4.3393    3.3463 C   0  0  0  0  0  0  0  0  0  0  0  0 
    8.9636   -6.5184   -0.6211 C   0  0  0  0  0  0  0  0  0  0  0  0 
    5.2295    2.2475   -1.1159 C   0  0  0  0  0  0  0  0  0  0  0  0 
    4.3222    1.1901   -1.0358 C   0  0  0  0  0  0  0  0  0  0  0  0 
    6.4022    2.2081   -0.3582 C   0  0  0  0  0  0  0  0  0  0  0  0 
    4.5891    0.1014   -0.2041 C   0  0  0  0  0  0  0  0  0  0  0  0 
    6.6642    1.1184    0.4726 C   0  0  0  0  0  0  0  0  0  0  0  0 
    6.0732   -1.1472    1.4329 C   0  0  0  0  0  0  0  0  0  0  0  0 
    7.0116   -2.1480    0.7237 C   0  0  0  0  0  0  0  0  0  0  0  0 
    6.5691   -4.5215    1.3729 C   0  0  0  0  0  0  0  0  0  0  0  0 
    7.0196   -5.3849    0.1924 C   0  0  0  0  0  0  0  0  0  0  0  0 
    8.3733   -3.1515    2.4655 C   0  0  0  0  0  0  0  0  0  0  0  0 
    5.7610    0.0489    0.5618 C   0  0  0  0  0  0  0  0  0  0  0  0 
    7.3461   -3.3032    1.5590 N   0  0  0  0  0  0  0  0  0  0  0  0 
    8.9704   -2.0821    2.5648 O   0  0  0  0  0  0  0  0  0  0  0  0 
    8.2937   -5.9231    0.4849 O   0  0  0  0  0  0  0  0  0  0  0  0 
    9.0020   -8.3223   -1.8173 H   0  0  0  0  0  0  0  0  0  0  0  0 
    7.3670   -7.8033   -1.3860 H   0  0  0  0  0  0  0  0  0  0  0  0 
    8.4049   -8.5617   -0.1612 H   0  0  0  0  0  0  0  0  0  0  0  0 
    7.9233   -4.5704    4.0505 H   0  0  0  0  0  0  0  0  0  0  0  0 
    9.6188   -4.0613    3.9181 H   0  0  0  0  0  0  0  0  0  0  0  0 
    8.9342   -5.2351    2.7532 H   0  0  0  0  0  0  0  0  0  0  0  0 
    8.9479   -5.8284   -1.4804 H   0  0  0  0  0  0  0  0  0  0  0  0 
   10.0052   -6.6237   -0.3010 H   0  0  0  0  0  0  0  0  0  0  0  0 
    5.0227    3.0977   -1.7605 H   0  0  0  0  0  0  0  0  0  0  0  0 
    3.4044    1.2136   -1.6180 H   0  0  0  0  0  0  0  0  0  0  0  0 
    7.1120    3.0296   -0.4109 H   0  0  0  0  0  0  0  0  0  0  0  0 
    3.8749   -0.7175   -0.1424 H   0  0  0  0  0  0  0  0  0  0  0  0 
    7.5770    1.0928    1.0637 H   0  0  0  0  0  0  0  0  0  0  0  0 
    6.5693   -0.8278    2.3550 H   0  0  0  0  0  0  0  0  0  0  0  0 
    5.1451   -1.6592    1.7185 H   0  0  0  0  0  0  0  0  0  0  0  0 
    7.9398   -1.6411    0.4520 H   0  0  0  0  0  0  0  0  0  0  0  0 
    6.5428   -2.5111   -0.1976 H   0  0  0  0  0  0  0  0  0  0  0  0 
    6.6021   -5.1260    2.2819 H   0  0  0  0  0  0  0  0  0  0  0  0 
    5.5180   -4.2453    1.2165 H   0  0  0  0  0  0  0  0  0  0  0  0 
    7.0620   -4.7800   -0.7287 H   0  0  0  0  0  0  0  0  0  0  0  0 
    6.2714   -6.1786    0.0321 H   0  0  0  0  0  0  0  0  0  0  0  0 
  1  3  1  0  0  0  0 
  1 20  1  0  0  0  0 
  2 22  1  0  0  0  0 
  2 21  1  0  0  0  0 
  3 25  1  0  0  0  0 
  3 17  1  0  0  0  0 
  4  5  2  0  0  0  0 
  4  6  1  0  0  0  0 
  5  7  1  0  0  0  0 
  6  8  2  0  0  0  0 
  7 29  1  0  0  0  0 
  7 14  2  0  0  0  0 
  8 14  1  0  0  0  0 
  8 30  1  0  0  0  0 
  9 32  1  0  0  0  0 
  9 31  1  0  0  0  0 
 10  9  1  0  0  0  0 
 10 15  1  0  0  0  0 
 11 15  1  0  0  0  0 
 11 35  1  0  0  0  0 
 12 17  1  0  0  0  0 
 12 11  1  0  0  0  0 
 13 16  2  0  0  0  0 
 13  2  1  0  0  0  0 
 14  9  1  0  0  0  0 
 15 13  1  0  0  0  0 
 18  1  1  0  0  0  0 
 19  1  1  0  0  0  0 
 23  2  1  0  0  0  0 
 24  3  1  0  0  0  0 
 26  4  1  0  0  0  0 
 27  5  1  0  0  0  0 
 28  6  1  0  0  0  0 
 33 10  1  0  0  0  0 
 34 10  1  0  0  0  0 
 36 11  1  0  0  0  0 
 37 12  1  0  0  0  0 
 38 12  1  0  0  0  0 
M  END 
>  <HBA> 
3 
 
>  <HBD> 
0 
 
>  <TPSA> 
29.54 
 
>  <cid> 
48100 
 
>  <dipole> 
4.45 
 
>  <excitation_energy_1> 
5.256 
 
>  <excitation_energy_2> 
5.516 
 
>  <excitation_energy_3> 
5.557 
 
>  <excitation_energy_4> 
5.605 
 
>  <homo_energy> 
-6.123 
 
>  <homo_lumo_gap> 
6.251 
 
>  <logP> 
2.114 
 
>  <lumo_energy> 
0.128 
 
>  <melting_point> 
17.58 
 
>  <molecular_refractivity> 
69.24 
 
>  <oscillator_strength_1> 
0.001 
 
>  <oscillator_strength_2> 
0.0417 
 
>  <oscillator_strength_3> 
0.0167 
 
>  <oscillator_strength_4> 
0.0563 
 
>  <open_babel_can_smiles> 
CCOCCN(C(=O)C)CCc1ccccc1 
 
>  <mulliken_charges> 
38 
1   -0.462055 
2   -0.561154 
3   -0.017621 
4   -0.13148 
5   -0.127895 
6   -0.128672 
7   -0.183946 
8   -0.18312 
9   -0.351631 
10   -0.140222 
11   -0.176969 
12   -0.006117 
13   0.584264 
14   0.163241 
15   -0.397813 
16   -0.520876 
17   -0.465907 
18   0.148819 
19   0.150128 
20   0.159175 
21   0.159871 
22   0.179312 
23   0.194794 
24   0.126496 
25   0.15124 
26   0.126417 
27   0.125567 
28   0.129309 
29   0.115569 
30   0.143576 
31   0.175864 
32   0.133157 
33   0.181533 
34   0.136518 
35   0.169122 
36   0.149891 
37   0.12724 
38   0.124377 
 
>  <lowdin_charges> 
38 
1   -0.46241 
2   -0.483711 
3   -0.127441 
4   -0.162227 
5   -0.156783 
6   -0.155419 
7   -0.172279 
8   -0.163912 
9   -0.282576 
10   -0.197128 
11   -0.204044 
12   -0.13985 
13   0.167349 
14   -0.001983 
15   -0.109274 
16   -0.322637 
17   -0.272808 
18   0.158625 
19   0.149623 
20   0.157436 
21   0.163453 
22   0.175614 
23   0.178028 
24   0.130677 
25   0.148934 
26   0.156682 
27   0.155513 
28   0.157976 
29   0.15122 
30   0.163253 
31   0.16683 
32   0.14364 
33   0.169003 
34   0.14285 
35   0.164743 
36   0.15018 
37   0.131246 
38   0.131601 
 
$$$$ 
 
