PCCDB-ID:  70457 
public computational chemistry database (PCCDB) project, http://pccdb.org 
 
 25 24  0  0  0  0  0  0  0  0999 V2000 
    4.7345   -1.3739   -1.2836 C   0  0  0  0  0  0  0  0  0  0  0  0 
    4.5806    0.8257   -2.4882 C   0  0  0  0  0  0  0  0  0  0  0  0 
    7.3645    1.4842    3.8345 C   0  0  0  0  0  0  0  0  0  0  0  0 
    7.0376    0.8639    2.4695 C   0  0  0  0  0  0  0  0  0  0  0  0 
    8.8541    1.7939    4.0016 C   0  0  0  0  0  0  0  0  0  0  0  0 
    5.5470    0.5772    2.3169 C   0  0  0  0  0  0  0  0  0  0  0  0 
    4.7942   -0.0363   -1.2718 C   0  0  0  0  0  0  0  0  0  0  0  0 
    5.0845    0.7174   -0.0136 C   0  0  0  0  0  0  0  0  0  0  0  0 
    9.1697    2.3138    5.2874 O   0  0  0  0  0  0  0  0  0  0  0  0 
    5.1549    1.9318    0.0324 O   0  0  0  0  0  0  0  0  0  0  0  0 
    5.2565   -0.0827    1.0653 O   0  0  0  0  0  0  0  0  0  0  0  0 
    4.5244   -1.9168   -2.2015 H   0  0  0  0  0  0  0  0  0  0  0  0 
    4.8926   -1.9588   -0.3848 H   0  0  0  0  0  0  0  0  0  0  0  0 
    4.3936    0.2116   -3.3736 H   0  0  0  0  0  0  0  0  0  0  0  0 
    5.4529    1.4615   -2.6757 H   0  0  0  0  0  0  0  0  0  0  0  0 
    3.7314    1.5032   -2.3432 H   0  0  0  0  0  0  0  0  0  0  0  0 
    7.0586    0.8112    4.6464 H   0  0  0  0  0  0  0  0  0  0  0  0 
    6.7895    2.4143    3.9617 H   0  0  0  0  0  0  0  0  0  0  0  0 
    7.5945   -0.0733    2.3390 H   0  0  0  0  0  0  0  0  0  0  0  0 
    7.3480    1.5409    1.6648 H   0  0  0  0  0  0  0  0  0  0  0  0 
    9.1890    2.4751    3.2017 H   0  0  0  0  0  0  0  0  0  0  0  0 
    9.4414    0.8738    3.9075 H   0  0  0  0  0  0  0  0  0  0  0  0 
    4.9630    1.4996    2.3756 H   0  0  0  0  0  0  0  0  0  0  0  0 
    5.1985   -0.1224    3.0818 H   0  0  0  0  0  0  0  0  0  0  0  0 
    8.7203    3.1688    5.3743 H   0  0  0  0  0  0  0  0  0  0  0  0 
  1  7  2  0  0  0  0 
  1 13  1  0  0  0  0 
  2 16  1  0  0  0  0 
  2  7  1  0  0  0  0 
  3 18  1  0  0  0  0 
  3  5  1  0  0  0  0 
  3 17  1  0  0  0  0 
  4  3  1  0  0  0  0 
  5  9  1  0  0  0  0 
  6 23  1  0  0  0  0 
  6  4  1  0  0  0  0 
  6 24  1  0  0  0  0 
  7  8  1  0  0  0  0 
  8 10  2  0  0  0  0 
  8 11  1  0  0  0  0 
  9 25  1  0  0  0  0 
 11  6  1  0  0  0  0 
 12  1  1  0  0  0  0 
 14  2  1  0  0  0  0 
 15  2  1  0  0  0  0 
 19  4  1  0  0  0  0 
 20  4  1  0  0  0  0 
 21  5  1  0  0  0  0 
 22  5  1  0  0  0  0 
M  END 
>  <HBA> 
3 
 
>  <HBD> 
1 
 
>  <TPSA> 
46.53 
 
>  <cid> 
70457 
 
>  <dipole> 
1.37 
 
>  <excitation_energy_1> 
4.812 
 
>  <excitation_energy_2> 
5.617 
 
>  <excitation_energy_3> 
5.881 
 
>  <excitation_energy_4> 
6.412 
 
>  <homo_energy> 
-7.187 
 
>  <homo_lumo_gap> 
6.101 
 
>  <logP> 
0.878 
 
>  <lumo_energy> 
-1.086 
 
>  <melting_point> 
-14.01 
 
>  <molecular_refractivity> 
42.54 
 
>  <oscillator_strength_1> 
0.0 
 
>  <oscillator_strength_2> 
0.0643 
 
>  <oscillator_strength_3> 
0.1744 
 
>  <oscillator_strength_4> 
0.1187 
 
>  <open_babel_can_smiles> 
CC(=C)C(=O)OCCCCO 
 
>  <mulliken_charges> 
25 
1   -0.368971 
2   -0.500084 
3   -0.287441 
4   -0.287002 
5   -0.026631 
6   -0.040297 
7   0.126772 
8   0.595435 
9   -0.613986 
10   -0.489429 
11   -0.481499 
12   0.148505 
13   0.172122 
14   0.147341 
15   0.172619 
16   0.172517 
17   0.147239 
18   0.129386 
19   0.145925 
20   0.162909 
21   0.123019 
22   0.147068 
23   0.166962 
24   0.150553 
25   0.386969 
 
>  <lowdin_charges> 
25 
1   -0.302471 
2   -0.435816 
3   -0.29435 
4   -0.288583 
5   -0.134967 
6   -0.13091 
7   -0.02728 
8   0.191171 
9   -0.466042 
10   -0.271532 
11   -0.191085 
12   0.163705 
13   0.175781 
14   0.155927 
15   0.169039 
16   0.168889 
17   0.149 
18   0.138594 
19   0.148198 
20   0.157445 
21   0.127681 
22   0.146749 
23   0.157436 
24   0.152883 
25   0.340539 
 
$$$$ 
 
