PCCDB-ID:  21026 
public computational chemistry database (PCCDB) project, http://pccdb.org 
 
 18 18  0  0  0  0  0  0  0  0999 V2000 
    0.8234   -0.0039    0.0564 C   0  0  0  0  0  0  0  0  0  0  0  0 
    4.4583    1.0983    0.3628 C   0  0  0  0  0  0  0  0  0  0  0  0 
    3.0670    1.1218    0.2805 C   0  0  0  0  0  0  0  0  0  0  0  0 
    5.1527   -0.1049    0.2858 C   0  0  0  0  0  0  0  0  0  0  0  0 
    2.3312   -0.0590    0.1274 C   0  0  0  0  0  0  0  0  0  0  0  0 
    4.4536   -1.3028    0.1094 C   0  0  0  0  0  0  0  0  0  0  0  0 
    3.0502   -1.2612    0.0334 C   0  0  0  0  0  0  0  0  0  0  0  0 
    2.3255   -2.5245   -0.1664 N   0  0  0  0  0  0  0  0  0  0  0  0 
    5.0745   -2.5080    0.0495 O   0  0  0  0  0  0  0  0  0  0  0  0 
    1.3859   -2.7647    0.5940 O   0  0  0  0  0  0  0  0  0  0  0  0 
    2.6892   -3.2509   -1.0864 O   0  0  0  0  0  0  0  0  0  0  0  0 
    0.4949    1.0294   -0.0857 H   0  0  0  0  0  0  0  0  0  0  0  0 
    0.3731   -0.3898    0.9760 H   0  0  0  0  0  0  0  0  0  0  0  0 
    0.4255   -0.6066   -0.7663 H   0  0  0  0  0  0  0  0  0  0  0  0 
    5.0095    2.0256    0.4899 H   0  0  0  0  0  0  0  0  0  0  0  0 
    2.5364    2.0675    0.3365 H   0  0  0  0  0  0  0  0  0  0  0  0 
    6.2380   -0.1256    0.3582 H   0  0  0  0  0  0  0  0  0  0  0  0 
    6.0290   -2.3749    0.1606 H   0  0  0  0  0  0  0  0  0  0  0  0 
  1  5  1  0  0  0  0 
  1 13  1  0  0  0  0 
  2 15  1  0  0  0  0 
  3 16  1  0  0  0  0 
  3  2  1  0  0  0  0 
  4 17  1  0  0  0  0 
  4  2  2  0  0  0  0 
  5  3  2  0  0  0  0 
  6  4  1  0  0  0  0 
  7  6  2  0  0  0  0 
  7  5  1  0  0  0  0 
  8  7  1  0  0  0  0 
  8 10  2  0  0  0  0 
  9  6  1  0  0  0  0 
  9 18  1  0  0  0  0 
 11  8  2  0  0  0  0 
 12  1  1  0  0  0  0 
 14  1  1  0  0  0  0 
M  END 
>  <HBA> 
1 
 
>  <HBD> 
1 
 
>  <TPSA> 
66.05 
 
>  <cid> 
21026 
 
>  <dipole> 
5.06 
 
>  <excitation_energy_1> 
3.595 
 
>  <excitation_energy_2> 
3.867 
 
>  <excitation_energy_3> 
4.319 
 
>  <excitation_energy_4> 
4.705 
 
>  <homo_energy> 
-6.596 
 
>  <homo_lumo_gap> 
4.645 
 
>  <logP> 
2.132 
 
>  <lumo_energy> 
-1.951 
 
>  <melting_point> 
87.92 
 
>  <molecular_refractivity> 
42.25 
 
>  <oscillator_strength_1> 
0.0331 
 
>  <oscillator_strength_2> 
0.0108 
 
>  <oscillator_strength_3> 
0.0003 
 
>  <oscillator_strength_4> 
0.0451 
 
>  <open_babel_can_smiles> 
O=N(=O)c1c(C)cccc1O 
 
>  <mulliken_charges> 
18 
1   -0.523498 
2   -0.10994 
3   -0.205336 
4   -0.206008 
5   0.174549 
6   0.365751 
7   0.175421 
8   0.345458 
9   -0.622907 
10   -0.385477 
11   -0.364103 
12   0.155292 
13   0.196145 
14   0.17518 
15   0.144359 
16   0.135527 
17   0.132358 
18   0.417231 
 
>  <lowdin_charges> 
18 
1   -0.442124 
2   -0.129413 
3   -0.182491 
4   -0.209107 
5   0.02767 
6   0.113921 
7   -0.028384 
8   0.308061 
9   -0.34897 
10   -0.244315 
11   -0.225012 
12   0.157798 
13   0.180142 
14   0.169882 
15   0.166686 
16   0.163254 
17   0.158853 
18   0.363551 
 
$$$$ 
 
