PCCDB-ID:  23866 
public computational chemistry database (PCCDB) project, http://pccdb.org 
 
 21 20  0  0  1  0  0  0  0  0999 V2000 
    1.7897    1.1481   -0.1123 C   0  0  0  0  0  0  0  0  0  0  0  0 
    5.3412    0.2868   -0.5809 C   0  0  0  0  0  0  0  0  0  0  0  0 
    5.6554   -1.8084    0.7773 C   0  0  0  0  0  0  0  0  0  0  0  0 
    2.6492   -2.0372    1.1104 C   0  0  0  0  0  0  0  0  0  0  0  0 
    2.3580   -0.0375   -0.3358 C   0  0  0  0  0  0  0  0  0  0  0  0 
    4.6810   -1.0195   -0.1120 C   0  0  0  0  0  0  0  0  0  0  0  0 
    3.3179   -0.7478    0.5891 C   0  0  2  0  0  0  0  0  0  0  0  0 
    1.0871    1.5891   -0.8149 H   0  0  0  0  0  0  0  0  0  0  0  0 
    2.0044    1.7251    0.7853 H   0  0  0  0  0  0  0  0  0  0  0  0 
    6.2842    0.0814   -1.1010 H   0  0  0  0  0  0  0  0  0  0  0  0 
    5.5697    0.9365    0.2746 H   0  0  0  0  0  0  0  0  0  0  0  0 
    4.6933    0.8506   -1.2587 H   0  0  0  0  0  0  0  0  0  0  0  0 
    6.6229   -1.9253    0.2751 H   0  0  0  0  0  0  0  0  0  0  0  0 
    5.2875   -2.8109    1.0167 H   0  0  0  0  0  0  0  0  0  0  0  0 
    5.8378   -1.2816    1.7236 H   0  0  0  0  0  0  0  0  0  0  0  0 
    1.6697   -1.8107    1.5447 H   0  0  0  0  0  0  0  0  0  0  0  0 
    3.2524   -2.5272    1.8810 H   0  0  0  0  0  0  0  0  0  0  0  0 
    2.4936   -2.7573    0.2964 H   0  0  0  0  0  0  0  0  0  0  0  0 
    2.1081   -0.5796   -1.2515 H   0  0  0  0  0  0  0  0  0  0  0  0 
    4.4699   -1.6310   -1.0043 H   0  0  0  0  0  0  0  0  0  0  0  0 
    3.5114   -0.0906    1.4509 H   0  0  0  0  0  0  0  0  0  0  0  0 
  1  9  1  0  0  0  0 
  2  6  1  0  0  0  0 
  2 11  1  0  0  0  0 
  3 14  1  0  0  0  0 
  3 15  1  0  0  0  0 
  4 16  1  0  0  0  0 
  4 17  1  0  0  0  0 
  5  1  2  0  0  0  0 
  5  7  1  0  0  0  0 
  6  7  1  0  0  0  0 
  6  3  1  0  0  0  0 
  7  4  1  0  0  0  0 
  7 21  1  1  0  0  0 
  8  1  1  0  0  0  0 
 10  2  1  0  0  0  0 
 12  2  1  0  0  0  0 
 13  3  1  0  0  0  0 
 18  4  1  0  0  0  0 
 19  5  1  0  0  0  0 
 20  6  1  0  0  0  0 
M  END 
>  <HBA> 
0 
 
>  <HBD> 
0 
 
>  <TPSA> 
0.0 
 
>  <cid> 
23866 
 
>  <dipole> 
0.3 
 
>  <excitation_energy_1> 
6.461 
 
>  <excitation_energy_2> 
6.775 
 
>  <excitation_energy_3> 
6.824 
 
>  <excitation_energy_4> 
6.94 
 
>  <homo_energy> 
-6.77 
 
>  <homo_lumo_gap> 
7.464 
 
>  <logP> 
2.465 
 
>  <lumo_energy> 
0.694 
 
>  <melting_point> 
-47.83 
 
>  <molecular_refractivity> 
35.29 
 
>  <oscillator_strength_1> 
0.0349 
 
>  <oscillator_strength_2> 
0.0897 
 
>  <oscillator_strength_3> 
0.0319 
 
>  <oscillator_strength_4> 
0.1718 
 
>  <open_babel_can_smiles> 
C=C[C@H](C(C)C)C 
 
>  <mulliken_charges> 
21 
1   -0.347696 
2   -0.444387 
3   -0.449688 
4   -0.455308 
5   -0.039964 
6   -0.068342 
7   -0.105634 
8   0.136536 
9   0.134133 
10   0.136532 
11   0.136144 
12   0.152207 
13   0.141009 
14   0.145215 
15   0.138311 
16   0.149928 
17   0.147904 
18   0.138982 
19   0.119227 
20   0.116323 
21   0.118568 
 
>  <lowdin_charges> 
21 
1   -0.349291 
2   -0.449059 
3   -0.445597 
4   -0.44657 
5   -0.140319 
6   -0.120973 
7   -0.12336 
8   0.158065 
9   0.153523 
10   0.146426 
11   0.145289 
12   0.156117 
13   0.149091 
14   0.148692 
15   0.145425 
16   0.153517 
17   0.152462 
18   0.146801 
19   0.147231 
20   0.133584 
21   0.138946 
 
$$$$ 
 
