PCCDB-ID:  30905 
public computational chemistry database (PCCDB) project, http://pccdb.org 
 
 29 29  0  0  0  0  0  0  0  0999 V2000 
    0.8678    4.6638   -3.5707 C   0  0  0  0  0  0  0  0  0  0  0  0 
   -2.1759    1.6541    3.5182 C   0  0  0  0  0  0  0  0  0  0  0  0 
   -2.7628    3.0501    3.1748 C   0  0  0  0  0  0  0  0  0  0  0  0 
    0.9742    2.1721    0.6541 C   0  0  0  0  0  0  0  0  0  0  0  0 
    0.7062    2.1648   -0.8535 C   0  0  0  0  0  0  0  0  0  0  0  0 
   -1.6561    1.1151    2.1537 C   0  0  0  0  0  0  0  0  0  0  0  0 
   -2.5549    3.1702    1.6401 C   0  0  0  0  0  0  0  0  0  0  0  0 
   -0.1112    2.8995    1.4617 C   0  0  0  0  0  0  0  0  0  0  0  0 
    0.9385    3.5082   -1.5155 C   0  0  0  0  0  0  0  0  0  0  0  0 
   -1.4361    2.2845    1.2861 N   0  0  0  0  0  0  0  0  0  0  0  0 
    1.3090    4.5246   -0.9651 O   0  0  0  0  0  0  0  0  0  0  0  0 
    0.6798    3.4406   -2.8428 O   0  0  0  0  0  0  0  0  0  0  0  0 
    0.6220    4.4289   -4.6070 H   0  0  0  0  0  0  0  0  0  0  0  0 
    1.9031    5.0064   -3.4904 H   0  0  0  0  0  0  0  0  0  0  0  0 
    0.2066    5.4461   -3.1879 H   0  0  0  0  0  0  0  0  0  0  0  0 
   -2.9196    0.9809    3.9568 H   0  0  0  0  0  0  0  0  0  0  0  0 
   -1.3590    1.7416    4.2421 H   0  0  0  0  0  0  0  0  0  0  0  0 
   -2.2210    3.8413    3.7039 H   0  0  0  0  0  0  0  0  0  0  0  0 
   -3.8185    3.1431    3.4501 H   0  0  0  0  0  0  0  0  0  0  0  0 
    1.9381    2.6519    0.8591 H   0  0  0  0  0  0  0  0  0  0  0  0 
    1.0577    1.1331    0.9969 H   0  0  0  0  0  0  0  0  0  0  0  0 
   -0.3307    1.8642   -1.0444 H   0  0  0  0  0  0  0  0  0  0  0  0 
    1.3398    1.4315   -1.3684 H   0  0  0  0  0  0  0  0  0  0  0  0 
   -2.4188    0.4770    1.6883 H   0  0  0  0  0  0  0  0  0  0  0  0 
   -0.7442    0.5177    2.2433 H   0  0  0  0  0  0  0  0  0  0  0  0 
   -2.3609    4.1916    1.3001 H   0  0  0  0  0  0  0  0  0  0  0  0 
   -3.4523    2.8127    1.1168 H   0  0  0  0  0  0  0  0  0  0  0  0 
   -0.1685    3.9324    1.1056 H   0  0  0  0  0  0  0  0  0  0  0  0 
    0.2040    2.9458    2.5205 H   0  0  0  0  0  0  0  0  0  0  0  0 
  1 14  1  0  0  0  0 
  1 15  1  0  0  0  0 
  1 12  1  0  0  0  0 
  2 16  1  0  0  0  0 
  2 17  1  0  0  0  0 
  3 19  1  0  0  0  0 
  3  2  1  0  0  0  0 
  3 18  1  0  0  0  0 
  4 20  1  0  0  0  0 
  4 21  1  0  0  0  0 
  4  8  1  0  0  0  0 
  5  4  1  0  0  0  0 
  6 25  1  0  0  0  0 
  6  2  1  0  0  0  0 
  7  3  1  0  0  0  0 
  8 29  1  0  0  0  0 
  9 11  2  0  0  0  0 
  9  5  1  0  0  0  0 
 10  8  1  0  0  0  0 
 10  7  1  0  0  0  0 
 10  6  1  0  0  0  0 
 12  9  1  0  0  0  0 
 13  1  1  0  0  0  0 
 22  5  1  0  0  0  0 
 23  5  1  0  0  0  0 
 24  6  1  0  0  0  0 
 26  7  1  0  0  0  0 
 27  7  1  0  0  0  0 
 28  8  1  0  0  0  0 
M  END 
>  <HBA> 
3 
 
>  <HBD> 
0 
 
>  <TPSA> 
29.54 
 
>  <cid> 
30905 
 
>  <dipole> 
0.97 
 
>  <excitation_energy_1> 
5.139 
 
>  <excitation_energy_2> 
5.262 
 
>  <excitation_energy_3> 
5.564 
 
>  <excitation_energy_4> 
5.637 
 
>  <homo_energy> 
-5.66 
 
>  <homo_lumo_gap> 
6.196 
 
>  <logP> 
0.973 
 
>  <lumo_energy> 
0.536 
 
>  <melting_point> 
9.1 
 
>  <molecular_refractivity> 
51.36 
 
>  <oscillator_strength_1> 
0.0318 
 
>  <oscillator_strength_2> 
0.0059 
 
>  <oscillator_strength_3> 
0.0022 
 
>  <oscillator_strength_4> 
0.0005 
 
>  <open_babel_can_smiles> 
COC(=O)CCCN1CCCC1 
 
>  <mulliken_charges> 
29 
1   -0.215885 
2   -0.284958 
3   -0.284066 
4   -0.257542 
5   -0.355807 
6   -0.150976 
7   -0.144633 
8   -0.140821 
9   0.61892 
10   -0.379343 
11   -0.485441 
12   -0.45192 
13   0.162161 
14   0.167709 
15   0.167387 
16   0.13785 
17   0.141537 
18   0.142238 
19   0.137203 
20   0.14931 
21   0.131077 
22   0.194018 
23   0.165421 
24   0.141131 
25   0.139556 
26   0.141235 
27   0.138577 
28   0.16167 
29   0.114392 
 
>  <lowdin_charges> 
29 
1   -0.277808 
2   -0.304362 
3   -0.302202 
4   -0.276452 
5   -0.307275 
6   -0.213302 
7   -0.209159 
8   -0.203883 
9   0.201838 
10   -0.192604 
11   -0.273523 
12   -0.197623 
13   0.157876 
14   0.156633 
15   0.158665 
16   0.148836 
17   0.146095 
18   0.147073 
19   0.145698 
20   0.15469 
21   0.141993 
22   0.178717 
23   0.16933 
24   0.14263 
25   0.146215 
26   0.146568 
27   0.140168 
28   0.153831 
29   0.121336 
 
$$$$ 
 
