PCCDB-ID:  16737 
public computational chemistry database (PCCDB) project, http://pccdb.org 
 
 26 25  0  0  0  0  0  0  0  0999 V2000 
    1.9519    0.5905    0.1532 C   0  0  0  0  0  0  0  0  0  0  0  0 
    6.7531    2.3929   -3.1425 C   0  0  0  0  0  0  0  0  0  0  0  0 
    2.7343   -0.5203    0.8588 C   0  0  0  0  0  0  0  0  0  0  0  0 
    6.1384    1.4806   -4.2079 C   0  0  0  0  0  0  0  0  0  0  0  0 
    3.3485   -1.5374   -0.0917 C   0  0  0  0  0  0  0  0  0  0  0  0 
    5.1749    0.4456   -3.6462 C   0  0  0  0  0  0  0  0  0  0  0  0 
    4.3242   -0.8529   -0.9224 O   0  0  0  0  0  0  0  0  0  0  0  0 
    5.9258   -0.4342   -2.7619 O   0  0  0  0  0  0  0  0  0  0  0  0 
    5.1885   -1.6668   -2.0281 P   0  0  0  0  0  0  0  0  0  0  0  0 
    6.7831   -2.4426   -0.8605 S   0  0  0  0  0  0  0  0  0  0  0  0 
    4.2217   -2.9311   -3.1449 S   0  0  0  0  0  0  0  0  0  0  0  0 
    1.5163    1.2850    0.8793 H   0  0  0  0  0  0  0  0  0  0  0  0 
    1.1341    0.1761   -0.4488 H   0  0  0  0  0  0  0  0  0  0  0  0 
    2.6028    1.1639   -0.5143 H   0  0  0  0  0  0  0  0  0  0  0  0 
    7.4213    3.1310   -3.5991 H   0  0  0  0  0  0  0  0  0  0  0  0 
    7.3316    1.8128   -2.4174 H   0  0  0  0  0  0  0  0  0  0  0  0 
    5.9754    2.9379   -2.5935 H   0  0  0  0  0  0  0  0  0  0  0  0 
    2.0746   -1.0752    1.5396 H   0  0  0  0  0  0  0  0  0  0  0  0 
    3.5314   -0.0912    1.4787 H   0  0  0  0  0  0  0  0  0  0  0  0 
    6.9268    0.9607   -4.7657 H   0  0  0  0  0  0  0  0  0  0  0  0 
    5.5731    2.0777   -4.9365 H   0  0  0  0  0  0  0  0  0  0  0  0 
    2.5946   -1.9915   -0.7436 H   0  0  0  0  0  0  0  0  0  0  0  0 
    3.8620   -2.3323    0.4614 H   0  0  0  0  0  0  0  0  0  0  0  0 
    4.7265   -0.1606   -4.4399 H   0  0  0  0  0  0  0  0  0  0  0  0 
    4.3759    0.9219   -3.0665 H   0  0  0  0  0  0  0  0  0  0  0  0 
    6.9397   -3.5496   -1.6139 H   0  0  0  0  0  0  0  0  0  0  0  0 
  1  3  1  0  0  0  0 
  1 12  1  0  0  0  0 
  2 17  1  0  0  0  0 
  2 16  1  0  0  0  0 
  3 19  1  0  0  0  0 
  3 18  1  0  0  0  0 
  4  6  1  0  0  0  0 
  4  2  1  0  0  0  0 
  5 23  1  0  0  0  0 
  5  3  1  0  0  0  0 
  6 25  1  0  0  0  0 
  6  8  1  0  0  0  0 
  7  5  1  0  0  0  0 
  8  9  1  0  0  0  0 
  9  7  1  0  0  0  0 
  9 10  1  0  0  0  0 
 11  9  1  0  0  0  0 
 13  1  1  0  0  0  0 
 14  1  1  0  0  0  0 
 15  2  1  0  0  0  0 
 20  4  1  0  0  0  0 
 21  4  1  0  0  0  0 
 22  5  1  0  0  0  0 
 24  6  1  0  0  0  0 
 26 10  1  0  0  0  0 
M  RAD  1  11   2 
M  END 
>  <HBA> 
4 
 
>  <HBD> 
1 
 
>  <TPSA> 
99.16 
 
>  <cid> 
16737 
 
>  <dipole> 
2.27 
 
>  <excitation_energy_1> 
4.78 
 
>  <excitation_energy_2> 
5.007 
 
>  <excitation_energy_3> 
5.575 
 
>  <excitation_energy_4> 
5.681 
 
>  <homo_energy> 
-6.621 
 
>  <homo_lumo_gap> 
5.951 
 
>  <logP> 
3.644 
 
>  <lumo_energy> 
-0.669 
 
>  <melting_point> 
-10.13 
 
>  <molecular_refractivity> 
56.62 
 
>  <oscillator_strength_1> 
0.0039 
 
>  <oscillator_strength_2> 
0.0438 
 
>  <oscillator_strength_3> 
0.011 
 
>  <oscillator_strength_4> 
0.0077 
 
>  <open_babel_can_smiles> 
CCCOP(OCCC)([S])S 
 
>  <mulliken_charges> 
26 
1   -0.445781 
2   -0.445237 
3   -0.271639 
4   -0.272316 
5   -0.045034 
6   -0.042356 
7   -0.519041 
8   -0.495782 
9   0.745701 
10   -0.181766 
11   -0.355811 
12   0.149141 
13   0.147147 
14   0.162082 
15   0.14759 
16   0.17142 
17   0.142006 
18   0.144941 
19   0.154765 
20   0.15775 
21   0.142798 
22   0.173953 
23   0.162891 
24   0.175455 
25   0.159528 
26   0.137597 
 
>  <lowdin_charges> 
26 
1   -0.449523 
2   -0.450234 
3   -0.280477 
4   -0.279878 
5   -0.125075 
6   -0.123848 
7   -0.401707 
8   -0.388001 
9   0.738432 
10   -0.179739 
11   -0.389636 
12   0.155045 
13   0.15089 
14   0.15696 
15   0.154238 
16   0.162262 
17   0.148785 
18   0.154349 
19   0.154084 
20   0.15609 
21   0.153309 
22   0.160822 
23   0.156317 
24   0.163275 
25   0.152067 
26   0.151194 
 
$$$$ 
 
