PCCDB-ID:  6638 
public computational chemistry database (PCCDB) project, http://pccdb.org 
 
 25 25  0  0  0  0  0  0  0  0999 V2000 
    6.2563   -2.3603    1.5505 C   0  0  0  0  0  0  0  0  0  0  0  0 
    6.6478    5.5776   -1.4368 C   0  0  0  0  0  0  0  0  0  0  0  0 
    5.4594   -2.1189    0.2829 C   0  0  0  0  0  0  0  0  0  0  0  0 
    5.0151    3.7418   -0.8134 C   0  0  0  0  0  0  0  0  0  0  0  0 
    6.9896    3.1513   -2.0652 C   0  0  0  0  0  0  0  0  0  0  0  0 
    4.6042    2.4096   -0.8142 C   0  0  0  0  0  0  0  0  0  0  0  0 
    6.5969    1.8166   -2.0777 C   0  0  0  0  0  0  0  0  0  0  0  0 
    6.2089    4.1328   -1.4333 C   0  0  0  0  0  0  0  0  0  0  0  0 
    5.4053    1.4584   -1.4436 C   0  0  0  0  0  0  0  0  0  0  0  0 
    5.4913   -0.9413   -2.5927 O   0  0  0  0  0  0  0  0  0  0  0  0 
    3.4438   -0.3250   -1.2329 O   0  0  0  0  0  0  0  0  0  0  0  0 
    5.6575   -0.7209   -0.0815 O   0  0  0  0  0  0  0  0  0  0  0  0 
    4.8883   -0.2456   -1.4546 S   0  0  0  0  0  0  0  0  0  0  0  0 
    6.1188   -3.3965    1.8790 H   0  0  0  0  0  0  0  0  0  0  0  0 
    5.9206   -1.6953    2.3522 H   0  0  0  0  0  0  0  0  0  0  0  0 
    7.3234   -2.1894    1.3791 H   0  0  0  0  0  0  0  0  0  0  0  0 
    5.9650    6.2063   -0.8578 H   0  0  0  0  0  0  0  0  0  0  0  0 
    6.6856    5.9763   -2.4582 H   0  0  0  0  0  0  0  0  0  0  0  0 
    7.6521    5.6890   -1.0111 H   0  0  0  0  0  0  0  0  0  0  0  0 
    4.3893   -2.2911    0.4368 H   0  0  0  0  0  0  0  0  0  0  0  0 
    5.8079   -2.7482   -0.5424 H   0  0  0  0  0  0  0  0  0  0  0  0 
    4.3952    4.4900   -0.3262 H   0  0  0  0  0  0  0  0  0  0  0  0 
    7.9155    3.4386   -2.5576 H   0  0  0  0  0  0  0  0  0  0  0  0 
    3.6736    2.1093   -0.3446 H   0  0  0  0  0  0  0  0  0  0  0  0 
    7.1927    1.0604   -2.5777 H   0  0  0  0  0  0  0  0  0  0  0  0 
  1 14  1  0  0  0  0 
  1 15  1  0  0  0  0 
  2  8  1  0  0  0  0 
  2 19  1  0  0  0  0 
  2 17  1  0  0  0  0 
  3 20  1  0  0  0  0 
  3  1  1  0  0  0  0 
  4 22  1  0  0  0  0 
  5  8  1  0  0  0  0 
  6  4  1  0  0  0  0 
  6 24  1  0  0  0  0 
  7  5  2  0  0  0  0 
  7  9  1  0  0  0  0 
  8  4  2  0  0  0  0 
  9  6  2  0  0  0  0 
 10 13  1  0  0  0  0 
 12  3  1  0  0  0  0 
 13  9  1  0  0  0  0 
 13 11  1  0  0  0  0 
 13 12  1  0  0  0  0 
 16  1  1  0  0  0  0 
 18  2  1  0  0  0  0 
 21  3  1  0  0  0  0 
 23  5  1  0  0  0  0 
 25  7  1  0  0  0  0 
M  RAD  2  10   2  11   2 
M  END 
>  <HBA> 
3 
 
>  <HBD> 
0 
 
>  <TPSA> 
51.75 
 
>  <cid> 
6638 
 
>  <dipole> 
4.16 
 
>  <excitation_energy_1> 
5.185 
 
>  <excitation_energy_2> 
5.637 
 
>  <excitation_energy_3> 
5.785 
 
>  <excitation_energy_4> 
6.38 
 
>  <homo_energy> 
-7.197 
 
>  <homo_lumo_gap> 
6.136 
 
>  <logP> 
2.801 
 
>  <lumo_energy> 
-1.061 
 
>  <melting_point> 
34.37 
 
>  <molecular_refractivity> 
50.39 
 
>  <oscillator_strength_1> 
0.0074 
 
>  <oscillator_strength_2> 
0.2009 
 
>  <oscillator_strength_3> 
0.0027 
 
>  <oscillator_strength_4> 
0.007 
 
>  <open_babel_can_smiles> 
CCOS(c1ccc(cc1)C)([O])[O] 
 
>  <mulliken_charges> 
25 
1   -0.457709 
2   -0.532292 
3   -0.051483 
4   -0.17966 
5   -0.173518 
6   -0.129409 
7   -0.130196 
8   0.183221 
9   -0.161232 
10   -0.52258 
11   -0.523342 
12   -0.5336 
13   1.231396 
14   0.156402 
15   0.167357 
16   0.166903 
17   0.162277 
18   0.173137 
19   0.170443 
20   0.173291 
21   0.1733 
22   0.138893 
23   0.138687 
24   0.18027 
25   0.179445 
 
>  <lowdin_charges> 
25 
1   -0.443338 
2   -0.442457 
3   -0.124426 
4   -0.164048 
5   -0.158779 
6   -0.127785 
7   -0.129706 
8   0.021713 
9   -0.183924 
10   -0.579133 
11   -0.577664 
12   -0.422785 
13   1.343824 
14   0.160943 
15   0.162721 
16   0.159951 
17   0.162172 
18   0.166564 
19   0.165362 
20   0.155463 
21   0.158429 
22   0.164292 
23   0.162953 
24   0.184418 
25   0.185241 
 
$$$$ 
 
