PCCDB-ID:  13166 
public computational chemistry database (PCCDB) project, http://pccdb.org 
 
 23 22  0  0  1  0  0  0  0  0999 V2000 
    1.0621   -0.3427   -0.2560 C   0  0  0  0  0  0  0  0  0  0  0  0 
    7.1917    3.7556    0.5930 C   0  0  0  0  0  0  0  0  0  0  0  0 
    2.5629   -0.0626   -0.1334 C   0  0  0  0  0  0  0  0  0  0  0  0 
    6.7923    3.0491    1.4881 C   0  0  0  0  0  0  0  0  0  0  0  0 
    2.9187    0.8035    1.0819 C   0  0  0  0  0  0  0  0  0  0  0  0 
    4.4206    1.0893    1.2078 C   0  0  0  0  0  0  0  0  0  0  0  0 
    4.7698    1.9318    2.4404 C   0  0  0  0  0  0  0  0  0  0  0  0 
    6.2735    2.2305    2.5977 C   0  0  2  0  0  0  0  0  0  0  0  0 
    6.5576    2.8349    3.8621 O   0  0  0  0  0  0  0  0  0  0  0  0 
    0.6820   -0.8650    0.6307 H   0  0  0  0  0  0  0  0  0  0  0  0 
    0.4912    0.5881   -0.3606 H   0  0  0  0  0  0  0  0  0  0  0  0 
    0.8412   -0.9674   -1.1292 H   0  0  0  0  0  0  0  0  0  0  0  0 
    7.5493    4.3827   -0.1920 H   0  0  0  0  0  0  0  0  0  0  0  0 
    2.9196    0.4321   -1.0479 H   0  0  0  0  0  0  0  0  0  0  0  0 
    3.1096   -1.0142   -0.0695 H   0  0  0  0  0  0  0  0  0  0  0  0 
    2.5627    0.3072    1.9968 H   0  0  0  0  0  0  0  0  0  0  0  0 
    2.3707    1.7556    1.0198 H   0  0  0  0  0  0  0  0  0  0  0  0 
    4.7739    1.6013    0.3031 H   0  0  0  0  0  0  0  0  0  0  0  0 
    4.9686    0.1364    1.2574 H   0  0  0  0  0  0  0  0  0  0  0  0 
    4.4556    1.4151    3.3558 H   0  0  0  0  0  0  0  0  0  0  0  0 
    4.2259    2.8868    2.4062 H   0  0  0  0  0  0  0  0  0  0  0  0 
    6.8210    1.2798    2.6240 H   0  0  0  0  0  0  0  0  0  0  0  0 
    6.1804    3.7295    3.8412 H   0  0  0  0  0  0  0  0  0  0  0  0 
  1  3  1  0  0  0  0 
  1 10  1  0  0  0  0 
  2  4  3  0  0  0  0 
  3 15  1  0  0  0  0 
  3  5  1  0  0  0  0 
  4  8  1  0  0  0  0 
  5  6  1  0  0  0  0 
  5 16  1  0  0  0  0 
  6 19  1  0  0  0  0 
  6  7  1  0  0  0  0 
  7  8  1  0  0  0  0 
  7 20  1  0  0  0  0 
  8 22  1  6  0  0  0 
  8  9  1  0  0  0  0 
 11  1  1  0  0  0  0 
 12  1  1  0  0  0  0 
 13  2  1  0  0  0  0 
 14  3  1  0  0  0  0 
 17  5  1  0  0  0  0 
 18  6  1  0  0  0  0 
 21  7  1  0  0  0  0 
 23  9  1  0  0  0  0 
M  END 
>  <HBA> 
1 
 
>  <HBD> 
1 
 
>  <TPSA> 
20.23 
 
>  <cid> 
13166 
 
>  <dipole> 
1.64 
 
>  <excitation_energy_1> 
6.19 
 
>  <excitation_energy_2> 
6.469 
 
>  <excitation_energy_3> 
6.678 
 
>  <excitation_energy_4> 
6.812 
 
>  <homo_energy> 
-7.154 
 
>  <homo_lumo_gap> 
8.033 
 
>  <logP> 
1.561 
 
>  <lumo_energy> 
0.879 
 
>  <melting_point> 
8.08 
 
>  <molecular_refractivity> 
39.89 
 
>  <oscillator_strength_1> 
0.0036 
 
>  <oscillator_strength_2> 
0.0193 
 
>  <oscillator_strength_3> 
0.0164 
 
>  <oscillator_strength_4> 
0.0186 
 
>  <open_babel_can_smiles> 
CCCCC[C@@H](C#C)O 
 
>  <mulliken_charges> 
23 
1   -0.442004 
2   -0.489369 
3   -0.247672 
4   0.31899 
5   -0.246449 
6   -0.26517 
7   -0.27119 
8   0.002709 
9   -0.610604 
10   0.141798 
11   0.141621 
12   0.14265 
13   0.192239 
14   0.132134 
15   0.131249 
16   0.128722 
17   0.128566 
18   0.146778 
19   0.129922 
20   0.149775 
21   0.128388 
22   0.167489 
23   0.389427 
 
>  <lowdin_charges> 
23 
1   -0.445744 
2   -0.249854 
3   -0.272241 
4   -0.055345 
5   -0.273419 
6   -0.278394 
7   -0.283477 
8   0.010034 
9   -0.447492 
10   0.14707 
11   0.146519 
12   0.150257 
13   0.207059 
14   0.140149 
15   0.139224 
16   0.138384 
17   0.138137 
18   0.149256 
19   0.139526 
20   0.152572 
21   0.141464 
22   0.163023 
23   0.343293 
 
$$$$ 
 
