PCCDB-ID:  16255 
public computational chemistry database (PCCDB) project, http://pccdb.org 
 
 41 40  0  0  0  0  0  0  0  0999 V2000 
    0.1963   -0.0819   -0.6995 C   0  0  0  0  0  0  0  0  0  0  0  0 
   12.0437    1.2759    1.8303 C   0  0  0  0  0  0  0  0  0  0  0  0 
   13.0082    2.4822   -0.1698 C   0  0  0  0  0  0  0  0  0  0  0  0 
    1.7146   -0.1153   -0.4975 C   0  0  0  0  0  0  0  0  0  0  0  0 
    2.4476    1.0164   -1.2296 C   0  0  0  0  0  0  0  0  0  0  0  0 
    3.9681    0.9923   -1.0274 C   0  0  0  0  0  0  0  0  0  0  0  0 
    4.7010    2.1233   -1.7608 C   0  0  0  0  0  0  0  0  0  0  0  0 
    6.2186    2.0994   -1.5421 C   0  0  0  0  0  0  0  0  0  0  0  0 
    6.9468    3.2353   -2.2902 C   0  0  0  0  0  0  0  0  0  0  0  0 
   10.4849    2.5004    0.2673 C   0  0  0  0  0  0  0  0  0  0  0  0 
   10.1783    3.7636   -0.5336 C   0  0  0  0  0  0  0  0  0  0  0  0 
   11.8951    2.4816    0.8904 C   0  0  0  0  0  0  0  0  0  0  0  0 
    8.4420    3.1710   -2.0589 C   0  0  0  0  0  0  0  0  0  0  0  0 
    9.2333    2.5908   -2.7721 O   0  0  0  0  0  0  0  0  0  0  0  0 
    8.7831    3.8142   -0.9157 O   0  0  0  0  0  0  0  0  0  0  0  0 
   -0.2971   -0.9016   -0.1649 H   0  0  0  0  0  0  0  0  0  0  0  0 
   -0.0649   -0.1719   -1.7612 H   0  0  0  0  0  0  0  0  0  0  0  0 
   -0.2316    0.8596   -0.3334 H   0  0  0  0  0  0  0  0  0  0  0  0 
   13.0319    1.2644    2.3048 H   0  0  0  0  0  0  0  0  0  0  0  0 
   11.9288    0.3338    1.2789 H   0  0  0  0  0  0  0  0  0  0  0  0 
   11.2882    1.2919    2.6247 H   0  0  0  0  0  0  0  0  0  0  0  0 
   13.9962    2.4432    0.3040 H   0  0  0  0  0  0  0  0  0  0  0  0 
   12.9819    3.3778   -0.8002 H   0  0  0  0  0  0  0  0  0  0  0  0 
   12.9200    1.6094   -0.8294 H   0  0  0  0  0  0  0  0  0  0  0  0 
    2.1086   -1.0826   -0.8404 H   0  0  0  0  0  0  0  0  0  0  0  0 
    1.9422   -0.0583    0.5765 H   0  0  0  0  0  0  0  0  0  0  0  0 
    2.0507    1.9845   -0.8891 H   0  0  0  0  0  0  0  0  0  0  0  0 
    2.2220    0.9575   -2.3049 H   0  0  0  0  0  0  0  0  0  0  0  0 
    4.3650    0.0240   -1.3665 H   0  0  0  0  0  0  0  0  0  0  0  0 
    4.1921    1.0527    0.0479 H   0  0  0  0  0  0  0  0  0  0  0  0 
    4.3015    3.0926   -1.4281 H   0  0  0  0  0  0  0  0  0  0  0  0 
    4.4872    2.0580   -2.8377 H   0  0  0  0  0  0  0  0  0  0  0  0 
    6.6259    1.1360   -1.8766 H   0  0  0  0  0  0  0  0  0  0  0  0 
    6.4388    2.1797   -0.4694 H   0  0  0  0  0  0  0  0  0  0  0  0 
    6.5660    4.2053   -1.9524 H   0  0  0  0  0  0  0  0  0  0  0  0 
    6.7751    3.1458   -3.3672 H   0  0  0  0  0  0  0  0  0  0  0  0 
   10.3580    1.6281   -0.3866 H   0  0  0  0  0  0  0  0  0  0  0  0 
    9.7363    2.4159    1.0664 H   0  0  0  0  0  0  0  0  0  0  0  0 
   10.7886    3.8302   -1.4366 H   0  0  0  0  0  0  0  0  0  0  0  0 
   10.3275    4.6613    0.0738 H   0  0  0  0  0  0  0  0  0  0  0  0 
   12.0054    3.3941    1.4977 H   0  0  0  0  0  0  0  0  0  0  0  0 
  1  4  1  0  0  0  0 
  1 18  1  0  0  0  0 
  1 16  1  0  0  0  0 
  2 19  1  0  0  0  0 
  2 21  1  0  0  0  0 
  3 22  1  0  0  0  0 
  3 12  1  0  0  0  0 
  4 26  1  0  0  0  0 
  5  6  1  0  0  0  0 
  5 27  1  0  0  0  0 
  5  4  1  0  0  0  0 
  6 30  1  0  0  0  0 
  7  8  1  0  0  0  0 
  7 31  1  0  0  0  0 
  7  6  1  0  0  0  0 
  8 34  1  0  0  0  0 
  9 13  1  0  0  0  0 
  9 35  1  0  0  0  0 
  9  8  1  0  0  0  0 
 10 12  1  0  0  0  0 
 10 38  1  0  0  0  0 
 11 40  1  0  0  0  0 
 11 10  1  0  0  0  0 
 12 41  1  0  0  0  0 
 12  2  1  0  0  0  0 
 13 15  1  0  0  0  0 
 14 13  2  0  0  0  0 
 15 11  1  0  0  0  0 
 17  1  1  0  0  0  0 
 20  2  1  0  0  0  0 
 23  3  1  0  0  0  0 
 24  3  1  0  0  0  0 
 25  4  1  0  0  0  0 
 28  5  1  0  0  0  0 
 29  6  1  0  0  0  0 
 32  7  1  0  0  0  0 
 33  8  1  0  0  0  0 
 36  9  1  0  0  0  0 
 37 10  1  0  0  0  0 
 39 11  1  0  0  0  0 
M  END 
>  <HBA> 
2 
 
>  <HBD> 
0 
 
>  <TPSA> 
26.3 
 
>  <cid> 
16255 
 
>  <dipole> 
1.81 
 
>  <excitation_energy_1> 
5.726 
 
>  <excitation_energy_2> 
6.987 
 
>  <excitation_energy_3> 
7.202 
 
>  <excitation_energy_4> 
7.353 
 
>  <homo_energy> 
-7.11 
 
>  <homo_lumo_gap> 
7.576 
 
>  <logP> 
3.936 
 
>  <lumo_energy> 
0.465 
 
>  <melting_point> 
-18.77 
 
>  <molecular_refractivity> 
65.89 
 
>  <oscillator_strength_1> 
0.0035 
 
>  <oscillator_strength_2> 
0.0104 
 
>  <oscillator_strength_3> 
0.0075 
 
>  <oscillator_strength_4> 
0.0148 
 
>  <open_babel_can_smiles> 
CCCCCCCC(=O)OCCC(C)C 
 
>  <mulliken_charges> 
41 
1   -0.441617 
2   -0.441631 
3   -0.446301 
4   -0.24713 
5   -0.246362 
6   -0.254164 
7   -0.253355 
8   -0.269644 
9   -0.329241 
10   -0.273199 
11   -0.049731 
12   -0.076229 
13   0.600155 
14   -0.478987 
15   -0.463213 
16   0.14208 
17   0.141618 
18   0.141245 
19   0.141609 
20   0.143083 
21   0.140798 
22   0.141787 
23   0.144774 
24   0.148995 
25   0.13089 
26   0.130225 
27   0.126934 
28   0.12767 
29   0.130269 
30   0.128664 
31   0.13082 
32   0.132526 
33   0.149567 
34   0.146549 
35   0.157208 
36   0.163353 
37   0.155303 
38   0.138033 
39   0.170277 
40   0.145764 
41   0.120609 
 
>  <lowdin_charges> 
41 
1   -0.444361 
2   -0.442971 
3   -0.447368 
4   -0.269982 
5   -0.272384 
6   -0.272159 
7   -0.271426 
8   -0.26705 
9   -0.293054 
10   -0.290069 
11   -0.134388 
12   -0.119456 
13   0.200452 
14   -0.273893 
15   -0.199476 
16   0.150472 
17   0.144978 
18   0.146338 
19   0.148458 
20   0.147737 
21   0.148468 
22   0.148961 
23   0.148814 
24   0.151268 
25   0.138923 
26   0.137022 
27   0.137247 
28   0.136064 
29   0.139061 
30   0.136679 
31   0.139075 
32   0.138382 
33   0.14839 
34   0.14493 
35   0.160355 
36   0.162261 
37   0.154026 
38   0.14694 
39   0.158872 
40   0.149638 
41   0.134225 
 
$$$$ 
 
