PCCDB-ID:  57474 
public computational chemistry database (PCCDB) project, http://pccdb.org 
 
 27 27  0  0  0  0  0  0  0  0999 V2000 
   -0.9003   -0.9781   -2.2872 C   0  0  0  0  0  0  0  0  0  0  0  0 
   -1.5733   -1.8484   -1.4306 C   0  0  0  0  0  0  0  0  0  0  0  0 
   -0.4206    2.9266    0.1684 C   0  0  0  0  0  0  0  0  0  0  0  0 
   -0.2503    0.1378   -1.7565 C   0  0  0  0  0  0  0  0  0  0  0  0 
    0.4407    1.6439    0.1683 C   0  0  0  0  0  0  0  0  0  0  0  0 
   -1.5902   -1.6000   -0.0583 C   0  0  0  0  0  0  0  0  0  0  0  0 
   -1.6229    2.8550    1.0990 C   0  0  0  0  0  0  0  0  0  0  0  0 
   -0.2553    0.4175   -0.3861 C   0  0  0  0  0  0  0  0  0  0  0  0 
   -0.9376   -0.4769    0.4581 C   0  0  0  0  0  0  0  0  0  0  0  0 
   -3.4004    4.2743    1.7363 C   0  0  0  0  0  0  0  0  0  0  0  0 
   -3.8645    3.3651    2.5000 N   0  0  0  0  0  0  0  0  0  0  0  0 
   -0.9310   -0.1968    1.8021 O   0  0  0  0  0  0  0  0  0  0  0  0 
   -3.8762    5.5291    1.5001 O   0  0  0  0  0  0  0  0  0  0  0  0 
   -2.2990    4.1269    0.9983 O   0  0  0  0  0  0  0  0  0  0  0  0 
   -0.8772   -1.1661   -3.3566 H   0  0  0  0  0  0  0  0  0  0  0  0 
   -2.0839   -2.7236   -1.8229 H   0  0  0  0  0  0  0  0  0  0  0  0 
   -0.7713    3.1373   -0.8498 H   0  0  0  0  0  0  0  0  0  0  0  0 
    0.2068    3.7747    0.4705 H   0  0  0  0  0  0  0  0  0  0  0  0 
    0.2810    0.8164   -2.4209 H   0  0  0  0  0  0  0  0  0  0  0  0 
    0.7888    1.4420    1.1870 H   0  0  0  0  0  0  0  0  0  0  0  0 
    1.3332    1.8425   -0.4372 H   0  0  0  0  0  0  0  0  0  0  0  0 
   -2.1105   -2.2776    0.6170 H   0  0  0  0  0  0  0  0  0  0  0  0 
   -1.3306    2.6856    2.1397 H   0  0  0  0  0  0  0  0  0  0  0  0 
   -2.3194    2.0602    0.8198 H   0  0  0  0  0  0  0  0  0  0  0  0 
   -4.7128    3.6628    2.9818 H   0  0  0  0  0  0  0  0  0  0  0  0 
   -1.4826   -0.8472    2.2636 H   0  0  0  0  0  0  0  0  0  0  0  0 
   -4.6759    5.6539    2.0331 H   0  0  0  0  0  0  0  0  0  0  0  0 
  1  4  2  0  0  0  0 
  1  2  1  0  0  0  0 
  2  6  2  0  0  0  0 
  3 18  1  0  0  0  0 
  3  7  1  0  0  0  0 
  4  8  1  0  0  0  0 
  5  3  1  0  0  0  0 
  5 20  1  0  0  0  0 
  6  9  1  0  0  0  0 
  6 22  1  0  0  0  0 
  7 23  1  0  0  0  0 
  8  5  1  0  0  0  0 
  8  9  2  0  0  0  0 
  9 12  1  0  0  0  0 
 10 11  2  0  0  0  0 
 11 25  1  0  0  0  0 
 12 26  1  0  0  0  0 
 13 10  1  0  0  0  0 
 13 27  1  0  0  0  0 
 14  7  1  0  0  0  0 
 14 10  1  0  0  0  0 
 15  1  1  0  0  0  0 
 16  2  1  0  0  0  0 
 17  3  1  0  0  0  0 
 19  4  1  0  0  0  0 
 21  5  1  0  0  0  0 
 24  7  1  0  0  0  0 
M  END 
>  <HBA> 
4 
 
>  <HBD> 
2 
 
>  <TPSA> 
72.55 
 
>  <cid> 
57474 
 
>  <dipole> 
1.94 
 
>  <excitation_energy_1> 
4.988 
 
>  <excitation_energy_2> 
5.244 
 
>  <excitation_energy_3> 
5.387 
 
>  <excitation_energy_4> 
5.731 
 
>  <homo_energy> 
-5.916 
 
>  <homo_lumo_gap> 
5.921 
 
>  <logP> 
2.12 
 
>  <lumo_energy> 
0.005 
 
>  <melting_point> 
123.16 
 
>  <molecular_refractivity> 
52.23 
 
>  <oscillator_strength_1> 
0.0503 
 
>  <oscillator_strength_2> 
0.0002 
 
>  <oscillator_strength_3> 
0.0013 
 
>  <oscillator_strength_4> 
0.0149 
 
>  <open_babel_can_smiles> 
OC(=N)OCCCc1ccccc1O 
 
>  <mulliken_charges> 
27 
1   -0.128889 
2   -0.13815 
3   -0.272771 
4   -0.194507 
5   -0.354794 
6   -0.185705 
7   -0.015332 
8   0.137921 
9   0.296313 
10   0.644567 
11   -0.630768 
12   -0.649982 
13   -0.571922 
14   -0.451526 
15   0.125592 
16   0.129388 
17   0.148795 
18   0.146897 
19   0.124507 
20   0.163516 
21   0.144645 
22   0.117348 
23   0.161907 
24   0.165342 
25   0.271522 
26   0.41074 
27   0.405349 
 
>  <lowdin_charges> 
27 
1   -0.176262 
2   -0.149074 
3   -0.276568 
4   -0.156071 
5   -0.272551 
6   -0.213673 
7   -0.120268 
8   -0.034108 
9   0.093959 
10   0.188618 
11   -0.475199 
12   -0.385172 
13   -0.368786 
14   -0.179875 
15   0.1555 
16   0.158751 
17   0.14896 
18   0.15141 
19   0.157188 
20   0.159243 
21   0.154291 
22   0.15413 
23   0.153072 
24   0.157754 
25   0.253906 
26   0.361322 
27   0.359505 
 
$$$$ 
 
