PCCDB-ID:  70140 
public computational chemistry database (PCCDB) project, http://pccdb.org 
 
 20 20  0  0  0  0  0  0  0  0999 V2000 
    2.6191   -0.2851   -0.2921 C   0  0  0  0  0  0  0  0  0  0  0  0 
    4.9491    2.7938   -2.1352 C   0  0  0  0  0  0  0  0  0  0  0  0 
    4.7016    4.1000   -1.7438 C   0  0  0  0  0  0  0  0  0  0  0  0 
    4.2242    1.7328   -1.5718 C   0  0  0  0  0  0  0  0  0  0  0  0 
    3.7221    4.3964   -0.7780 C   0  0  0  0  0  0  0  0  0  0  0  0 
    3.2543    2.0066   -0.6163 C   0  0  0  0  0  0  0  0  0  0  0  0 
    3.0035    3.3350   -0.2196 C   0  0  0  0  0  0  0  0  0  0  0  0 
    3.5283    5.8471   -0.4189 C   0  0  0  0  0  0  0  0  0  0  0  0 
    2.0359    3.5560    0.7268 O   0  0  0  0  0  0  0  0  0  0  0  0 
    4.1891    6.7233   -0.9317 O   0  0  0  0  0  0  0  0  0  0  0  0 
    2.5884    6.1525    0.4991 O   0  0  0  0  0  0  0  0  0  0  0  0 
    2.4609    1.0904    0.0320 O   0  0  0  0  0  0  0  0  0  0  0  0 
    1.9016   -0.8256    0.3271 H   0  0  0  0  0  0  0  0  0  0  0  0 
    3.6345   -0.6305   -0.0621 H   0  0  0  0  0  0  0  0  0  0  0  0 
    2.4008   -0.4685   -1.3513 H   0  0  0  0  0  0  0  0  0  0  0  0 
    5.7089    2.5816   -2.8810 H   0  0  0  0  0  0  0  0  0  0  0  0 
    5.2503    4.9339   -2.1665 H   0  0  0  0  0  0  0  0  0  0  0  0 
    4.4235    0.7125   -1.8810 H   0  0  0  0  0  0  0  0  0  0  0  0 
    1.6607    2.6909    0.9738 H   0  0  0  0  0  0  0  0  0  0  0  0 
    2.1398    5.3453    0.8183 H   0  0  0  0  0  0  0  0  0  0  0  0 
  1 14  1  0  0  0  0 
  1 12  1  0  0  0  0 
  1 13  1  0  0  0  0 
  2  3  2  0  0  0  0 
  2  4  1  0  0  0  0 
  3  5  1  0  0  0  0 
  4  6  2  0  0  0  0 
  5  8  1  0  0  0  0 
  5  7  2  0  0  0  0 
  6  7  1  0  0  0  0 
  6 12  1  0  0  0  0 
  7  9  1  0  0  0  0 
  8 11  1  0  0  0  0 
  9 19  1  0  0  0  0 
 10  8  2  0  0  0  0 
 11 20  1  0  0  0  0 
 15  1  1  0  0  0  0 
 16  2  1  0  0  0  0 
 17  3  1  0  0  0  0 
 18  4  1  0  0  0  0 
M  END 
>  <HBA> 
4 
 
>  <HBD> 
2 
 
>  <TPSA> 
66.76 
 
>  <cid> 
70140 
 
>  <dipole> 
7.97 
 
>  <excitation_energy_1> 
4.456 
 
>  <excitation_energy_2> 
4.694 
 
>  <excitation_energy_3> 
5.305 
 
>  <excitation_energy_4> 
5.379 
 
>  <homo_energy> 
-6.272 
 
>  <homo_lumo_gap> 
5.154 
 
>  <logP> 
1.099 
 
>  <lumo_energy> 
-1.118 
 
>  <melting_point> 
141.73 
 
>  <molecular_refractivity> 
41.92 
 
>  <oscillator_strength_1> 
0.0629 
 
>  <oscillator_strength_2> 
0.0 
 
>  <oscillator_strength_3> 
0.0 
 
>  <oscillator_strength_4> 
0.0796 
 
>  <open_babel_can_smiles> 
COc1cccc(c1O)C(=O)O 
 
>  <mulliken_charges> 
20 
1   -0.217839 
2   -0.140848 
3   -0.175641 
4   -0.194861 
5   0.02087 
6   0.367888 
7   0.239816 
8   0.57312 
9   -0.69862 
10   -0.462215 
11   -0.601067 
12   -0.558361 
13   0.177596 
14   0.164438 
15   0.164416 
16   0.140287 
17   0.171808 
18   0.143109 
19   0.443353 
20   0.44275 
 
>  <lowdin_charges> 
20 
1   -0.271482 
2   -0.162842 
3   -0.136142 
4   -0.188259 
5   -0.083262 
6   0.060129 
7   0.085333 
8   0.19917 
9   -0.385076 
10   -0.257271 
11   -0.361625 
12   -0.221438 
13   0.168952 
14   0.151709 
15   0.150948 
16   0.16491 
17   0.184806 
18   0.166481 
19   0.373305 
20   0.361653 
 
$$$$ 
 
