PCCDB-ID:  8658 
public computational chemistry database (PCCDB) project, http://pccdb.org 
 
 18 18  0  0  0  0  0  0  0  0999 V2000 
    2.2567    1.2971    0.6999 C   0  0  0  0  0  0  0  0  0  0  0  0 
    4.3233    0.8747   -3.8983 C   0  0  0  0  0  0  0  0  0  0  0  0 
    3.9035    1.9647   -3.1317 C   0  0  0  0  0  0  0  0  0  0  0  0 
    4.1882   -0.4076   -3.3787 C   0  0  0  0  0  0  0  0  0  0  0  0 
    3.3556    1.7845   -1.8607 C   0  0  0  0  0  0  0  0  0  0  0  0 
    3.5152   -2.0068   -1.5997 C   0  0  0  0  0  0  0  0  0  0  0  0 
    3.6403   -0.6214   -2.1069 C   0  0  0  0  0  0  0  0  0  0  0  0 
    3.2200    0.4909   -1.3403 C   0  0  0  0  0  0  0  0  0  0  0  0 
    3.8619   -2.9903   -2.2327 O   0  0  0  0  0  0  0  0  0  0  0  0 
    2.6958    0.2183   -0.1139 O   0  0  0  0  0  0  0  0  0  0  0  0 
    1.8813    0.8418    1.6176 H   0  0  0  0  0  0  0  0  0  0  0  0 
    1.4493    1.8612    0.2163 H   0  0  0  0  0  0  0  0  0  0  0  0 
    3.0821    1.9783    0.9425 H   0  0  0  0  0  0  0  0  0  0  0  0 
    4.7484    1.0288   -4.8854 H   0  0  0  0  0  0  0  0  0  0  0  0 
    4.0014    2.9740   -3.5233 H   0  0  0  0  0  0  0  0  0  0  0  0 
    4.5006   -1.2839   -3.9387 H   0  0  0  0  0  0  0  0  0  0  0  0 
    3.0392    2.6486   -1.2885 H   0  0  0  0  0  0  0  0  0  0  0  0 
    3.0794   -2.1112   -0.5893 H   0  0  0  0  0  0  0  0  0  0  0  0 
  1 13  1  0  0  0  0 
  1 11  1  0  0  0  0 
  2  4  2  0  0  0  0 
  2  3  1  0  0  0  0 
  3  5  2  0  0  0  0 
  4  7  1  0  0  0  0 
  5  8  1  0  0  0  0 
  5 17  1  0  0  0  0 
  6 18  1  0  0  0  0 
  7  6  1  0  0  0  0 
  7  8  2  0  0  0  0 
  8 10  1  0  0  0  0 
  9  6  2  0  0  0  0 
 10  1  1  0  0  0  0 
 12  1  1  0  0  0  0 
 14  2  1  0  0  0  0 
 15  3  1  0  0  0  0 
 16  4  1  0  0  0  0 
M  END 
>  <HBA> 
2 
 
>  <HBD> 
0 
 
>  <TPSA> 
26.3 
 
>  <cid> 
8658 
 
>  <dipole> 
4.81 
 
>  <excitation_energy_1> 
3.564 
 
>  <excitation_energy_2> 
4.123 
 
>  <excitation_energy_3> 
5.052 
 
>  <excitation_energy_4> 
5.711 
 
>  <homo_energy> 
-6.357 
 
>  <homo_lumo_gap> 
4.833 
 
>  <logP> 
1.508 
 
>  <lumo_energy> 
-1.524 
 
>  <melting_point> 
43.19 
 
>  <molecular_refractivity> 
38.32 
 
>  <oscillator_strength_1> 
0.0001 
 
>  <oscillator_strength_2> 
0.0954 
 
>  <oscillator_strength_3> 
0.173 
 
>  <oscillator_strength_4> 
0.0001 
 
>  <open_babel_can_smiles> 
O=Cc1ccccc1OC 
 
>  <mulliken_charges> 
18 
1   -0.219156 
2   -0.130304 
3   -0.127696 
4   -0.170162 
5   -0.196379 
6   0.200881 
7   0.033043 
8   0.33472 
9   -0.417143 
10   -0.50755 
11   0.177391 
12   0.158549 
13   0.158544 
14   0.136396 
15   0.139384 
16   0.165445 
17   0.1385 
18   0.125537 
 
>  <lowdin_charges> 
18 
1   -0.27931 
2   -0.174168 
3   -0.125748 
4   -0.115821 
5   -0.216953 
6   0.048832 
7   -0.085299 
8   0.115308 
9   -0.239608 
10   -0.193358 
11   0.167408 
12   0.150323 
13   0.150189 
14   0.161349 
15   0.161589 
16   0.178227 
17   0.166331 
18   0.130711 
 
$$$$ 
 
