PCCDB-ID:  24772 
public computational chemistry database (PCCDB) project, http://pccdb.org 
 
 16 16  0  0  0  0  0  0  0  0999 V2000 
    1.1766   -0.0109   -0.5842 C   0  0  0  0  0  0  0  0  0  0  0  0 
    2.4009    0.1075   -0.0437 C   0  0  0  0  0  0  0  0  0  0  0  0 
    5.1269    2.2766    1.3931 C   0  0  0  0  0  0  0  0  0  0  0  0 
    4.5309    3.5377    1.2872 C   0  0  0  0  0  0  0  0  0  0  0  0 
    4.4039    1.1803    0.9485 C   0  0  0  0  0  0  0  0  0  0  0  0 
    3.2655    3.6515    0.7538 C   0  0  0  0  0  0  0  0  0  0  0  0 
    3.1154    1.2950    0.4053 C   0  0  0  0  0  0  0  0  0  0  0  0 
    2.5523    2.5613    0.3137 N   0  3  0  0  0  0  0  0  0  0  0  0 
    1.3835    2.7481   -0.1693 O   0  5  0  0  0  0  0  0  0  0  0  0 
    0.8137   -0.9987   -0.8568 H   0  0  0  0  0  0  0  0  0  0  0  0 
    0.5380    0.8416   -0.7589 H   0  0  0  0  0  0  0  0  0  0  0  0 
    2.9855   -0.8000    0.1031 H   0  0  0  0  0  0  0  0  0  0  0  0 
    6.1219    2.1576    1.8081 H   0  0  0  0  0  0  0  0  0  0  0  0 
    5.0400    4.4378    1.6167 H   0  0  0  0  0  0  0  0  0  0  0  0 
    4.8261    0.1818    1.0115 H   0  0  0  0  0  0  0  0  0  0  0  0 
    2.7250    4.5805    0.6319 H   0  0  0  0  0  0  0  0  0  0  0  0 
  1  2  2  0  0  0  0 
  2 12  1  0  0  0  0 
  2  7  1  0  0  0  0 
  3 13  1  0  0  0  0 
  4  3  1  0  0  0  0 
  4 14  1  0  0  0  0 
  5 15  1  0  0  0  0 
  5  3  2  0  0  0  0 
  6  4  2  0  0  0  0 
  7  5  1  0  0  0  0 
  8  7  2  0  0  0  0 
  8  6  1  0  0  0  0 
  9  8  1  0  0  0  0 
 10  1  1  0  0  0  0 
 11  1  1  0  0  0  0 
 16  6  1  0  0  0  0 
M  CHG  2   8   1   9  -1 
M  END 
>  <HBA> 
1 
 
>  <HBD> 
0 
 
>  <TPSA> 
25.46 
 
>  <cid> 
24772 
 
>  <dipole> 
3.43 
 
>  <excitation_energy_1> 
3.867 
 
>  <excitation_energy_2> 
3.919 
 
>  <excitation_energy_3> 
4.428 
 
>  <excitation_energy_4> 
4.674 
 
>  <homo_energy> 
-5.742 
 
>  <homo_lumo_gap> 
4.37 
 
>  <logP> 
1.758 
 
>  <lumo_energy> 
-1.371 
 
>  <melting_point> 
11.96 
 
>  <molecular_refractivity> 
37.7 
 
>  <oscillator_strength_1> 
0.0 
 
>  <oscillator_strength_2> 
0.0378 
 
>  <oscillator_strength_3> 
0.0986 
 
>  <oscillator_strength_4> 
0.0001 
 
>  <open_babel_can_smiles> 
C=Cc1cccc[n+]1[O-] 
 
>  <mulliken_charges> 
16 
1   -0.334101 
2   -0.110275 
3   -0.101146 
4   -0.172949 
5   -0.22492 
6   0.06808 
7   0.381366 
8   -0.095569 
9   -0.514651 
10   0.137121 
11   0.204314 
12   0.129441 
13   0.146542 
14   0.154328 
15   0.151761 
16   0.180661 
 
>  <lowdin_charges> 
16 
1   -0.306182 
2   -0.16648 
3   -0.164227 
4   -0.155307 
5   -0.153506 
6   -0.119738 
7   0.025702 
8   0.213332 
9   -0.378316 
10   0.157784 
11   0.192452 
12   0.158742 
13   0.167101 
14   0.174119 
15   0.169754 
16   0.18477 
 
$$$$ 
 
