PCCDB-ID:  13004 
public computational chemistry database (PCCDB) project, http://pccdb.org 
 
 14 14  0  0  0  0  0  0  0  0999 V2000 
    1.4458    0.7344    0.7568 C   0  0  0  0  0  0  0  0  0  0  0  0 
    2.3729   -0.7617   -2.6970 C   0  0  0  0  0  0  0  0  0  0  0  0 
    3.6736   -0.8645   -1.9793 C   0  0  0  0  0  0  0  0  0  0  0  0 
    1.8788   -0.3643   -0.1967 C   0  0  0  0  0  0  0  0  0  0  0  0 
    2.5948    0.0659   -1.4363 C   0  0  0  0  0  0  0  0  0  0  0  0 
    1.6539   -1.5419    0.0334 O   0  0  0  0  0  0  0  0  0  0  0  0 
    0.7710    1.4352    0.2487 H   0  0  0  0  0  0  0  0  0  0  0  0 
    2.3153    1.3154    1.0902 H   0  0  0  0  0  0  0  0  0  0  0  0 
    0.9406    0.3000    1.6215 H   0  0  0  0  0  0  0  0  0  0  0  0 
    1.6781   -1.5899   -2.5959 H   0  0  0  0  0  0  0  0  0  0  0  0 
    2.3303   -0.2253   -3.6404 H   0  0  0  0  0  0  0  0  0  0  0  0 
    4.5549   -0.3999   -2.4119 H   0  0  0  0  0  0  0  0  0  0  0  0 
    3.8545   -1.7628   -1.3968 H   0  0  0  0  0  0  0  0  0  0  0  0 
    2.7490    1.1342   -1.5622 H   0  0  0  0  0  0  0  0  0  0  0  0 
  1  8  1  0  0  0  0 
  1  9  1  0  0  0  0 
  2 10  1  0  0  0  0 
  2  3  1  0  0  0  0 
  2  5  1  0  0  0  0 
  3  5  1  0  0  0  0 
  3 13  1  0  0  0  0 
  4  6  2  0  0  0  0 
  4  1  1  0  0  0  0 
  5  4  1  0  0  0  0 
  7  1  1  0  0  0  0 
 11  2  1  0  0  0  0 
 12  3  1  0  0  0  0 
 14  5  1  0  0  0  0 
M  END 
>  <HBA> 
1 
 
>  <HBD> 
0 
 
>  <TPSA> 
17.07 
 
>  <cid> 
13004 
 
>  <dipole> 
2.75 
 
>  <excitation_energy_1> 
4.494 
 
>  <excitation_energy_2> 
6.193 
 
>  <excitation_energy_3> 
6.686 
 
>  <excitation_energy_4> 
6.858 
 
>  <homo_energy> 
-6.615 
 
>  <homo_lumo_gap> 
6.346 
 
>  <logP> 
0.985 
 
>  <lumo_energy> 
-0.269 
 
>  <melting_point> 
18.07 
 
>  <molecular_refractivity> 
24.23 
 
>  <oscillator_strength_1> 
0.0 
 
>  <oscillator_strength_2> 
0.0198 
 
>  <oscillator_strength_3> 
0.0934 
 
>  <oscillator_strength_4> 
0.0005 
 
>  <open_babel_can_smiles> 
CC(=O)C1CC1 
 
>  <mulliken_charges> 
14 
1   -0.537672 
2   -0.298428 
3   -0.298864 
4   0.468813 
5   -0.199529 
6   -0.468094 
7   0.16939 
8   0.169102 
9   0.178138 
10   0.181663 
11   0.156978 
12   0.157051 
13   0.181618 
14   0.139833 
 
>  <lowdin_charges> 
14 
1   -0.474293 
2   -0.289543 
3   -0.290385 
4   0.168823 
5   -0.199522 
6   -0.258732 
7   0.170921 
8   0.170085 
9   0.17265 
10   0.174261 
11   0.162331 
12   0.163054 
13   0.173987 
14   0.156364 
 
$$$$ 
 
