PCCDB-ID:  71213 
public computational chemistry database (PCCDB) project, http://pccdb.org 
 
 38 38  0  0  1  0  0  0  0  0999 V2000 
    3.0736   -2.9749    5.4426 C   0  0  0  0  0  0  0  0  0  0  0  0 
    4.2894   -0.7812    5.7214 C   0  0  0  0  0  0  0  0  0  0  0  0 
    4.5368    1.0569   -1.3923 C   0  0  0  0  0  0  0  0  0  0  0  0 
    4.0042   -1.8491   -4.4315 C   0  0  0  0  0  0  0  0  0  0  0  0 
    3.7961   -3.1745   -4.0614 C   0  0  0  0  0  0  0  0  0  0  0  0 
    4.1584   -0.8550   -3.4588 C   0  0  0  0  0  0  0  0  0  0  0  0 
    3.7343   -3.5110   -2.7056 C   0  0  0  0  0  0  0  0  0  0  0  0 
    4.1621   -2.8234    2.5545 C   0  0  0  0  0  0  0  0  0  0  0  0 
    4.8365   -3.5919    0.2166 C   0  0  0  0  0  0  0  0  0  0  0  0 
    3.6544   -1.7524    4.7219 C   0  0  0  0  0  0  0  0  0  0  0  0 
    5.2708   -2.8774    1.4953 C   0  0  1  0  0  0  0  0  0  0  0  0 
    4.1075   -1.1902   -2.1041 C   0  0  0  0  0  0  0  0  0  0  0  0 
    3.8855   -2.5326   -1.7274 C   0  0  0  0  0  0  0  0  0  0  0  0 
    4.6735   -2.1607    3.7495 N   0  0  0  0  0  0  0  0  0  0  0  0 
    5.7519   -1.5724    1.1896 O   0  0  0  0  0  0  0  0  0  0  0  0 
    4.2618   -0.3011   -1.0727 O   0  0  0  0  0  0  0  0  0  0  0  0 
    3.7823   -2.8166   -0.3883 O   0  0  0  0  0  0  0  0  0  0  0  0 
    2.3282   -2.6669    6.1852 H   0  0  0  0  0  0  0  0  0  0  0  0 
    3.8718   -3.5251    5.9541 H   0  0  0  0  0  0  0  0  0  0  0  0 
    2.5802   -3.6621    4.7465 H   0  0  0  0  0  0  0  0  0  0  0  0 
    3.5583   -0.4550    6.4693 H   0  0  0  0  0  0  0  0  0  0  0  0 
    4.6730    0.1138    5.2154 H   0  0  0  0  0  0  0  0  0  0  0  0 
    5.1269   -1.2619    6.2400 H   0  0  0  0  0  0  0  0  0  0  0  0 
    4.6459    1.5714   -0.4363 H   0  0  0  0  0  0  0  0  0  0  0  0 
    3.7103    1.5068   -1.9562 H   0  0  0  0  0  0  0  0  0  0  0  0 
    5.4665    1.1529   -1.9671 H   0  0  0  0  0  0  0  0  0  0  0  0 
    4.0494   -1.5738   -5.4814 H   0  0  0  0  0  0  0  0  0  0  0  0 
    3.6749   -3.9451   -4.8168 H   0  0  0  0  0  0  0  0  0  0  0  0 
    4.3263    0.1710   -3.7660 H   0  0  0  0  0  0  0  0  0  0  0  0 
    3.5535   -4.5352   -2.3925 H   0  0  0  0  0  0  0  0  0  0  0  0 
    3.8543   -3.8491    2.7986 H   0  0  0  0  0  0  0  0  0  0  0  0 
    3.2784   -2.3157    2.1221 H   0  0  0  0  0  0  0  0  0  0  0  0 
    4.4636   -4.6016    0.4335 H   0  0  0  0  0  0  0  0  0  0  0  0 
    5.6832   -3.6648   -0.4743 H   0  0  0  0  0  0  0  0  0  0  0  0 
    2.8146   -1.2284    4.2196 H   0  0  0  0  0  0  0  0  0  0  0  0 
    6.1243   -3.4206    1.9201 H   0  0  0  0  0  0  0  0  0  0  0  0 
    5.1735   -1.3327    3.4257 H   0  0  0  0  0  0  0  0  0  0  0  0 
    5.0978   -1.1658    0.5880 H   0  0  0  0  0  0  0  0  0  0  0  0 
  1 19  1  0  0  0  0 
  1 18  1  0  0  0  0 
  2 23  1  0  0  0  0 
  2 21  1  0  0  0  0 
  3 16  1  0  0  0  0 
  3 24  1  0  0  0  0 
  4  5  2  0  0  0  0 
  4  6  1  0  0  0  0 
  5  7  1  0  0  0  0 
  6 12  2  0  0  0  0 
  7 30  1  0  0  0  0 
  7 13  2  0  0  0  0 
  8 31  1  0  0  0  0 
  8 14  1  0  0  0  0 
  9 33  1  0  0  0  0 
  9 11  1  0  0  0  0 
 10  1  1  0  0  0  0 
 10  2  1  0  0  0  0 
 11 36  1  1  0  0  0 
 11  8  1  0  0  0  0 
 12 13  1  0  0  0  0 
 12 16  1  0  0  0  0 
 13 17  1  0  0  0  0 
 14 10  1  0  0  0  0 
 15 11  1  0  0  0  0 
 17  9  1  0  0  0  0 
 20  1  1  0  0  0  0 
 22  2  1  0  0  0  0 
 25  3  1  0  0  0  0 
 26  3  1  0  0  0  0 
 27  4  1  0  0  0  0 
 28  5  1  0  0  0  0 
 29  6  1  0  0  0  0 
 32  8  1  0  0  0  0 
 34  9  1  0  0  0  0 
 35 10  1  0  0  0  0 
 37 14  1  0  0  0  0 
 38 15  1  0  0  0  0 
M  END 
>  <HBA> 
4 
 
>  <HBD> 
2 
 
>  <TPSA> 
50.72 
 
>  <cid> 
71213 
 
>  <dipole> 
3.02 
 
>  <excitation_energy_1> 
4.972 
 
>  <excitation_energy_2> 
5.012 
 
>  <excitation_energy_3> 
5.3 
 
>  <excitation_energy_4> 
5.373 
 
>  <homo_energy> 
-5.6 
 
>  <homo_lumo_gap> 
5.499 
 
>  <logP> 
1.824 
 
>  <lumo_energy> 
-0.101 
 
>  <melting_point> 
57.01 
 
>  <molecular_refractivity> 
67.42 
 
>  <oscillator_strength_1> 
0.0059 
 
>  <oscillator_strength_2> 
0.0448 
 
>  <oscillator_strength_3> 
0.0002 
 
>  <oscillator_strength_4> 
0.0046 
 
>  <open_babel_can_smiles> 
COc1ccccc1OC[C@H](CNC(C)C)O 
 
>  <mulliken_charges> 
38 
1   -0.437186 
2   -0.454361 
3   -0.218014 
4   -0.134221 
5   -0.140087 
6   -0.202923 
7   -0.174072 
8   -0.120431 
9   -0.061642 
10   0.072577 
11   0.111087 
12   0.354682 
13   0.31353 
14   -0.572162 
15   -0.667764 
16   -0.5248 
17   -0.54362 
18   0.133996 
19   0.148045 
20   0.141279 
21   0.139374 
22   0.13556 
23   0.153115 
24   0.177034 
25   0.159082 
26   0.160152 
27   0.13147 
28   0.131574 
29   0.136961 
30   0.137565 
31   0.12818 
32   0.123959 
33   0.137832 
34   0.151656 
35   0.097245 
36   0.143138 
37   0.305995 
38   0.426193 
 
>  <lowdin_charges> 
38 
1   -0.453217 
2   -0.450189 
3   -0.276298 
4   -0.154105 
5   -0.169127 
6   -0.20411 
7   -0.17368 
8   -0.220334 
9   -0.138289 
10   -0.055335 
11   -0.015578 
12   0.078803 
13   0.071576 
14   -0.369578 
15   -0.479368 
16   -0.197039 
17   -0.23018 
18   0.1478 
19   0.152652 
20   0.148887 
21   0.150689 
22   0.14569 
23   0.15426 
24   0.166883 
25   0.150791 
26   0.150001 
27   0.158412 
28   0.160937 
29   0.163435 
30   0.164782 
31   0.137877 
32   0.125589 
33   0.142263 
34   0.151932 
35   0.111371 
36   0.151321 
37   0.257323 
38   0.343154 
 
$$$$ 
 
