PCCDB-ID:  20890 
public computational chemistry database (PCCDB) project, http://pccdb.org 
 
 23 22  0  0  0  0  0  0  0  0999 V2000 
    1.4932   -1.6818   -1.3332 C   0  0  0  0  0  0  0  0  0  0  0  0 
    1.7065    0.8515   -1.3879 C   0  0  0  0  0  0  0  0  0  0  0  0 
    2.4566   -0.4912   -1.3547 C   0  0  0  0  0  0  0  0  0  0  0  0 
    4.7010   -0.3459    2.3651 C   0  0  0  0  0  0  0  0  0  0  0  0 
    4.5180    0.1197   -0.1231 C   0  0  0  0  0  0  0  0  0  0  0  0 
    3.5086   -0.8062    2.5277 N   0  0  0  0  0  0  0  0  0  0  0  0 
    5.6592   -0.1616    3.3696 N   0  0  0  0  0  0  0  0  0  0  0  0 
    5.1538    0.7921   -1.0207 N   0  0  0  0  0  0  0  0  0  0  0  0 
    3.3564   -0.5978   -0.2099 N   0  0  0  0  0  0  0  0  0  0  0  0 
    5.1648    0.0793    1.1354 N   0  0  0  0  0  0  0  0  0  0  0  0 
    0.8283   -1.6540   -2.2029 H   0  0  0  0  0  0  0  0  0  0  0  0 
    0.8666   -1.6590   -0.4326 H   0  0  0  0  0  0  0  0  0  0  0  0 
    2.0425   -2.6286   -1.3432 H   0  0  0  0  0  0  0  0  0  0  0  0 
    1.0872    0.9326   -2.2893 H   0  0  0  0  0  0  0  0  0  0  0  0 
    2.4096    1.6904   -1.3760 H   0  0  0  0  0  0  0  0  0  0  0  0 
    1.0526    0.9448   -0.5128 H   0  0  0  0  0  0  0  0  0  0  0  0 
    3.0709   -0.5733   -2.2618 H   0  0  0  0  0  0  0  0  0  0  0  0 
    3.3602   -1.1367    3.4799 H   0  0  0  0  0  0  0  0  0  0  0  0 
    5.4292   -0.6218    4.2414 H   0  0  0  0  0  0  0  0  0  0  0  0 
    6.6156   -0.3532    3.0910 H   0  0  0  0  0  0  0  0  0  0  0  0 
    4.6645    0.7747   -1.9136 H   0  0  0  0  0  0  0  0  0  0  0  0 
    2.9561   -0.8612    0.6939 H   0  0  0  0  0  0  0  0  0  0  0  0 
    5.9853    0.6708    1.1242 H   0  0  0  0  0  0  0  0  0  0  0  0 
  1 12  1  0  0  0  0 
  2 15  1  0  0  0  0 
  2  3  1  0  0  0  0 
  2 16  1  0  0  0  0 
  3  1  1  0  0  0  0 
  3  9  1  0  0  0  0 
  4  6  1  0  0  0  0 
  4  7  2  0  0  0  0 
  5 10  1  0  0  0  0 
  6 18  1  0  0  0  0 
  7 19  1  0  0  0  0 
  8  5  2  0  0  0  0 
  9  5  1  0  0  0  0 
  9 22  1  0  0  0  0 
 10  4  1  0  0  0  0 
 11  1  1  0  0  0  0 
 13  1  1  0  0  0  0 
 14  2  1  0  0  0  0 
 17  3  1  0  0  0  0 
 20  7  1  0  0  0  0 
 21  8  1  0  0  0  0 
 23 10  1  0  0  0  0 
M  RAD  1   6   2 
M  END 
>  <HBA> 
5 
 
>  <HBD> 
3 
 
>  <TPSA> 
102.78 
 
>  <cid> 
20890 
 
>  <dipole> 
3.06 
 
>  <excitation_energy_1> 
4.883 
 
>  <excitation_energy_2> 
5.483 
 
>  <excitation_energy_3> 
5.618 
 
>  <excitation_energy_4> 
5.744 
 
>  <homo_energy> 
-5.576 
 
>  <homo_lumo_gap> 
6.414 
 
>  <logP> 
1.084 
 
>  <lumo_energy> 
0.838 
 
>  <melting_point> 
172.57 
 
>  <molecular_refractivity> 
41.64 
 
>  <oscillator_strength_1> 
0.0008 
 
>  <oscillator_strength_2> 
0.0093 
 
>  <oscillator_strength_3> 
0.002 
 
>  <oscillator_strength_4> 
0.0975 
 
>  <open_babel_can_smiles> 
CC(NC(=N)NC(=[NH2])[NH])C 
 
>  <mulliken_charges> 
23 
1   -0.4566 
2   -0.43914 
3   0.041394 
4   0.662032 
5   0.658207 
6   -0.689807 
7   -0.756733 
8   -0.690935 
9   -0.626007 
10   -0.665111 
11   0.146664 
12   0.148736 
13   0.15786 
14   0.138536 
15   0.159616 
16   0.146758 
17   0.134576 
18   0.277604 
19   0.325637 
20   0.328969 
21   0.279686 
22   0.374318 
23   0.343739 
 
>  <lowdin_charges> 
23 
1   -0.446573 
2   -0.45895 
3   -0.050174 
4   0.144704 
5   0.145673 
6   -0.488424 
7   -0.498779 
8   -0.50489 
9   -0.307936 
10   -0.258731 
11   0.15409 
12   0.151177 
13   0.157295 
14   0.149324 
15   0.158444 
16   0.15186 
17   0.13878 
18   0.25336 
19   0.280016 
20   0.281432 
21   0.251058 
22   0.299129 
23   0.298114 
 
$$$$ 
 
