PCCDB-ID:  20727 
public computational chemistry database (PCCDB) project, http://pccdb.org 
 
 16 16  0  0  0  0  0  0  0  0999 V2000 
    1.3714   -0.1257   -0.3347 C   0  0  0  0  0  0  0  0  0  0  0  0 
    5.0358    1.6850    2.3181 C   0  0  0  0  0  0  0  0  0  0  0  0 
    4.4010    2.9337    2.2656 C   0  0  0  0  0  0  0  0  0  0  0  0 
    4.4318    0.5870    1.7310 C   0  0  0  0  0  0  0  0  0  0  0  0 
    3.1767    3.0024    1.6113 C   0  0  0  0  0  0  0  0  0  0  0  0 
    3.1825    0.7663    1.0901 C   0  0  0  0  0  0  0  0  0  0  0  0 
    2.5284   -0.3076    0.5251 N   0  0  0  0  0  0  0  0  0  0  0  0 
    2.5704    1.9591    1.0277 N   0  0  0  0  0  0  0  0  0  0  0  0 
    0.9777   -1.1115   -0.5978 H   0  0  0  0  0  0  0  0  0  0  0  0 
    1.6045    0.4268   -1.2567 H   0  0  0  0  0  0  0  0  0  0  0  0 
    0.5999    0.4327    0.1998 H   0  0  0  0  0  0  0  0  0  0  0  0 
    5.9967    1.5740    2.8145 H   0  0  0  0  0  0  0  0  0  0  0  0 
    4.8437    3.8169    2.7141 H   0  0  0  0  0  0  0  0  0  0  0  0 
    4.8966   -0.3953    1.7635 H   0  0  0  0  0  0  0  0  0  0  0  0 
    2.6436    3.9501    1.5407 H   0  0  0  0  0  0  0  0  0  0  0  0 
    3.1022   -1.1177    0.3401 H   0  0  0  0  0  0  0  0  0  0  0  0 
  1 11  1  0  0  0  0 
  1  7  1  0  0  0  0 
  2 12  1  0  0  0  0 
  3  2  1  0  0  0  0 
  3 13  1  0  0  0  0 
  4 14  1  0  0  0  0 
  4  2  2  0  0  0  0 
  5  3  2  0  0  0  0 
  6  4  1  0  0  0  0 
  7  6  1  0  0  0  0 
  8  6  2  0  0  0  0 
  8  5  1  0  0  0  0 
  9  1  1  0  0  0  0 
 10  1  1  0  0  0  0 
 15  5  1  0  0  0  0 
 16  7  1  0  0  0  0 
M  END 
>  <HBA> 
2 
 
>  <HBD> 
1 
 
>  <TPSA> 
24.92 
 
>  <cid> 
20727 
 
>  <dipole> 
1.94 
 
>  <excitation_energy_1> 
4.446 
 
>  <excitation_energy_2> 
4.849 
 
>  <excitation_energy_3> 
5.121 
 
>  <excitation_energy_4> 
5.377 
 
>  <homo_energy> 
-5.44 
 
>  <homo_lumo_gap> 
5.252 
 
>  <logP> 
1.196 
 
>  <lumo_energy> 
-0.188 
 
>  <melting_point> 
53.37 
 
>  <molecular_refractivity> 
33.54 
 
>  <oscillator_strength_1> 
0.0462 
 
>  <oscillator_strength_2> 
0.0007 
 
>  <oscillator_strength_3> 
0.0028 
 
>  <oscillator_strength_4> 
0.2527 
 
>  <open_babel_can_smiles> 
CNc1ccccn1 
 
>  <mulliken_charges> 
16 
1   -0.285537 
2   -0.103147 
3   -0.158915 
4   -0.186819 
5   0.041122 
6   0.516409 
7   -0.621555 
8   -0.509085 
9   0.142284 
10   0.151426 
11   0.183842 
12   0.134361 
13   0.125858 
14   0.12003 
15   0.132452 
16   0.317274 
 
>  <lowdin_charges> 
16 
1   -0.348883 
2   -0.122021 
3   -0.216525 
4   -0.217562 
5   -0.078711 
6   0.102114 
7   -0.288463 
8   -0.196783 
9   0.15027 
10   0.143863 
11   0.169366 
12   0.15914 
13   0.160551 
14   0.154788 
15   0.152323 
16   0.276532 
 
$$$$ 
 
