PCCDB-ID:  69343 
public computational chemistry database (PCCDB) project, http://pccdb.org 
 
 26 25  0  0  0  0  0  0  0  0999 V2000 
    2.8715    1.5269   -3.3832 C   0  0  0  0  0  0  0  0  0  0  0  0 
    5.9501   -6.2082   -0.5509 C   0  0  0  0  0  0  0  0  0  0  0  0 
    2.9112    1.1626   -1.8972 C   0  0  0  0  0  0  0  0  0  0  0  0 
    5.0837   -5.0026   -0.9269 C   0  0  0  0  0  0  0  0  0  0  0  0 
    3.4953   -0.2307   -1.6366 C   0  0  0  0  0  0  0  0  0  0  0  0 
    5.9112   -3.7311   -1.1273 C   0  0  0  0  0  0  0  0  0  0  0  0 
    5.5112   -1.4035   -1.9483 C   0  0  0  0  0  0  0  0  0  0  0  0 
    4.8824   -0.2959   -2.0645 N   0  0  0  0  0  0  0  0  0  0  0  0 
    5.0460   -2.6054   -1.4745 N   0  0  0  0  0  0  0  0  0  0  0  0 
    6.8061   -1.4805   -2.3622 O   0  0  0  0  0  0  0  0  0  0  0  0 
    2.4875    2.5423   -3.5347 H   0  0  0  0  0  0  0  0  0  0  0  0 
    2.2243    0.8381   -3.9415 H   0  0  0  0  0  0  0  0  0  0  0  0 
    3.8748    1.4689   -3.8162 H   0  0  0  0  0  0  0  0  0  0  0  0 
    5.3375   -7.1052   -0.4114 H   0  0  0  0  0  0  0  0  0  0  0  0 
    6.4985   -6.0301    0.3819 H   0  0  0  0  0  0  0  0  0  0  0  0 
    6.6866   -6.4257   -1.3335 H   0  0  0  0  0  0  0  0  0  0  0  0 
    1.8992    1.2051   -1.4715 H   0  0  0  0  0  0  0  0  0  0  0  0 
    3.5175    1.8969   -1.3514 H   0  0  0  0  0  0  0  0  0  0  0  0 
    4.3359   -4.8304   -0.1383 H   0  0  0  0  0  0  0  0  0  0  0  0 
    4.5237   -5.2095   -1.8474 H   0  0  0  0  0  0  0  0  0  0  0  0 
    2.8782   -0.9805   -2.1661 H   0  0  0  0  0  0  0  0  0  0  0  0 
    3.3976   -0.4551   -0.5570 H   0  0  0  0  0  0  0  0  0  0  0  0 
    6.6246   -3.8721   -1.9433 H   0  0  0  0  0  0  0  0  0  0  0  0 
    6.5006   -3.5216   -0.2199 H   0  0  0  0  0  0  0  0  0  0  0  0 
    4.1874   -2.5359   -0.9449 H   0  0  0  0  0  0  0  0  0  0  0  0 
    6.9924   -0.5926   -2.7161 H   0  0  0  0  0  0  0  0  0  0  0  0 
  1  3  1  0  0  0  0 
  2 14  1  0  0  0  0 
  2 15  1  0  0  0  0 
  3  5  1  0  0  0  0 
  3 17  1  0  0  0  0 
  3 18  1  0  0  0  0 
  4  2  1  0  0  0  0 
  4 19  1  0  0  0  0 
  5 22  1  0  0  0  0 
  6  4  1  0  0  0  0 
  6 24  1  0  0  0  0 
  7  9  1  0  0  0  0 
  8  7  2  0  0  0  0 
  8  5  1  0  0  0  0 
  9  6  1  0  0  0  0 
  9 25  1  0  0  0  0 
 10  7  1  0  0  0  0 
 11  1  1  0  0  0  0 
 12  1  1  0  0  0  0 
 13  1  1  0  0  0  0 
 16  2  1  0  0  0  0 
 20  4  1  0  0  0  0 
 21  5  1  0  0  0  0 
 23  6  1  0  0  0  0 
 26 10  1  0  0  0  0 
M  END 
>  <HBA> 
3 
 
>  <HBD> 
2 
 
>  <TPSA> 
41.13 
 
>  <cid> 
69343 
 
>  <dipole> 
2.28 
 
>  <excitation_energy_1> 
5.249 
 
>  <excitation_energy_2> 
5.687 
 
>  <excitation_energy_3> 
5.937 
 
>  <excitation_energy_4> 
6.16 
 
>  <homo_energy> 
-5.818 
 
>  <homo_lumo_gap> 
7.47 
 
>  <logP> 
1.887 
 
>  <lumo_energy> 
1.652 
 
>  <melting_point> 
58.86 
 
>  <molecular_refractivity> 
41.96 
 
>  <oscillator_strength_1> 
0.0067 
 
>  <oscillator_strength_2> 
0.0085 
 
>  <oscillator_strength_3> 
0.0056 
 
>  <oscillator_strength_4> 
0.0264 
 
>  <open_babel_can_smiles> 
CCCN/C(=N\CCC)/O 
 
>  <mulliken_charges> 
26 
1   -0.438673 
2   -0.446781 
3   -0.243839 
4   -0.275423 
5   -0.145009 
6   -0.093577 
7   0.702013 
8   -0.50685 
9   -0.639742 
10   -0.617376 
11   0.134366 
12   0.131876 
13   0.162397 
14   0.150674 
15   0.147583 
16   0.14998 
17   0.119562 
18   0.137707 
19   0.130463 
20   0.151826 
21   0.120952 
22   0.111372 
23   0.173769 
24   0.140133 
25   0.329371 
26   0.413224 
 
>  <lowdin_charges> 
26 
1   -0.446603 
2   -0.444505 
3   -0.273314 
4   -0.279745 
5   -0.201242 
6   -0.19185 
7   0.16024 
8   -0.306361 
9   -0.29703 
10   -0.379876 
11   0.144788 
12   0.143186 
13   0.156247 
14   0.155104 
15   0.149741 
16   0.151801 
17   0.13586 
18   0.145737 
19   0.138688 
20   0.149845 
21   0.12596 
22   0.119747 
23   0.162973 
24   0.136083 
25   0.28145 
26   0.363077 
 
$$$$ 
 
