PCCDB-ID:  41162 
public computational chemistry database (PCCDB) project, http://pccdb.org 
 
 31 33  0  0  1  0  0  0  0  0999 V2000 
    0.4366   -0.3381    3.2958 C   0  0  0  0  0  0  0  0  0  0  0  0 
    0.8060    0.9683    2.9166 C   0  0  0  0  0  0  0  0  0  0  0  0 
   -1.7487   -5.0591   -0.1331 C   0  0  0  0  0  0  0  0  0  0  0  0 
   -2.7923   -5.2187    0.9813 C   0  0  0  0  0  0  0  0  0  0  0  0 
   -0.3147   -1.1455    2.4509 C   0  0  0  0  0  0  0  0  0  0  0  0 
    0.4289    1.4893    1.6851 C   0  0  0  0  0  0  0  0  0  0  0  0 
   -1.0753   -3.6804   -0.0583 C   0  0  0  0  0  0  0  0  0  0  0  0 
   -3.7905   -4.0491    0.9450 C   0  0  0  0  0  0  0  0  0  0  0  0 
   -1.5311   -0.1873   -0.8556 C   0  0  0  0  0  0  0  0  0  0  0  0 
   -0.7172   -0.6507    1.1953 C   0  0  0  0  0  0  0  0  0  0  0  0 
   -1.4878   -1.1797    0.0896 C   0  0  0  0  0  0  0  0  0  0  0  0 
   -0.3296    0.6732    0.8400 C   0  0  0  0  0  0  0  0  0  0  0  0 
   -2.1238   -2.5386   -0.0415 C   0  0  2  0  0  0  0  0  0  0  0  0 
   -3.1739   -2.7202    0.9808 N   0  0  0  0  0  0  0  0  0  0  0  0 
   -0.8354    0.9237   -0.4180 N   0  0  0  0  0  0  0  0  0  0  0  0 
    0.7472   -0.7182    4.2651 H   0  0  0  0  0  0  0  0  0  0  0  0 
    1.3949    1.5774    3.5968 H   0  0  0  0  0  0  0  0  0  0  0  0 
   -2.2464   -5.1676   -1.1089 H   0  0  0  0  0  0  0  0  0  0  0  0 
   -0.9953   -5.8551   -0.0784 H   0  0  0  0  0  0  0  0  0  0  0  0 
   -2.2876   -5.2344    1.9591 H   0  0  0  0  0  0  0  0  0  0  0  0 
   -3.3241   -6.1748    0.8828 H   0  0  0  0  0  0  0  0  0  0  0  0 
   -0.5847   -2.1509    2.7626 H   0  0  0  0  0  0  0  0  0  0  0  0 
    0.7128    2.4964    1.3897 H   0  0  0  0  0  0  0  0  0  0  0  0 
   -0.3944   -3.5351   -0.9068 H   0  0  0  0  0  0  0  0  0  0  0  0 
   -0.4601   -3.6204    0.8498 H   0  0  0  0  0  0  0  0  0  0  0  0 
   -4.5024   -4.1157    1.7764 H   0  0  0  0  0  0  0  0  0  0  0  0 
   -4.3823   -4.1130    0.0191 H   0  0  0  0  0  0  0  0  0  0  0  0 
   -2.0154   -0.1858   -1.8228 H   0  0  0  0  0  0  0  0  0  0  0  0 
   -2.6455   -2.5689   -1.0111 H   0  0  0  0  0  0  0  0  0  0  0  0 
   -2.7789   -2.5471    1.9040 H   0  0  0  0  0  0  0  0  0  0  0  0 
   -0.7341    1.7870   -0.9277 H   0  0  0  0  0  0  0  0  0  0  0  0 
  1 16  1  0  0  0  0 
  2  1  1  0  0  0  0 
  2 17  1  0  0  0  0 
  3 19  1  0  0  0  0 
  3  7  1  0  0  0  0 
  3  4  1  0  0  0  0 
  4 20  1  0  0  0  0 
  5 22  1  0  0  0  0 
  5  1  2  0  0  0  0 
  6  2  2  0  0  0  0 
  7 13  1  0  0  0  0 
  7 25  1  0  0  0  0 
  8 14  1  0  0  0  0 
  8  4  1  0  0  0  0 
  8 26  1  0  0  0  0 
  9 15  1  0  0  0  0 
  9 11  2  0  0  0  0 
 10  5  1  0  0  0  0 
 11 10  1  0  0  0  0 
 12 10  2  0  0  0  0 
 12  6  1  0  0  0  0 
 13 29  1  6  0  0  0 
 13 11  1  0  0  0  0 
 13 14  1  0  0  0  0 
 14 30  1  0  0  0  0 
 15 12  1  0  0  0  0 
 18  3  1  0  0  0  0 
 21  4  1  0  0  0  0 
 23  6  1  0  0  0  0 
 24  7  1  0  0  0  0 
 27  8  1  0  0  0  0 
 28  9  1  0  0  0  0 
 31 15  1  0  0  0  0 
M  END 
>  <HBA> 
1 
 
>  <HBD> 
2 
 
>  <TPSA> 
27.82 
 
>  <cid> 
41162 
 
>  <dipole> 
1.72 
 
>  <excitation_energy_1> 
4.534 
 
>  <excitation_energy_2> 
4.63 
 
>  <excitation_energy_3> 
4.757 
 
>  <excitation_energy_4> 
4.823 
 
>  <homo_energy> 
-5.344 
 
>  <homo_lumo_gap> 
5.219 
 
>  <logP> 
3.311 
 
>  <lumo_energy> 
-0.125 
 
>  <melting_point> 
146.86 
 
>  <molecular_refractivity> 
67.1 
 
>  <oscillator_strength_1> 
0.0562 
 
>  <oscillator_strength_2> 
0.0101 
 
>  <oscillator_strength_3> 
0.0008 
 
>  <oscillator_strength_4> 
0.0245 
 
>  <open_babel_can_smiles> 
C1CC[C@@H](NC1)c1c[nH]c2c1cccc2 
 
>  <mulliken_charges> 
31 
1   -0.140362 
2   -0.151655 
3   -0.260758 
4   -0.259501 
5   -0.216383 
6   -0.161491 
7   -0.261717 
8   -0.137848 
9   -0.004348 
10   0.078143 
11   0.086503 
12   0.311907 
13   -0.052533 
14   -0.544328 
15   -0.691651 
16   0.119457 
17   0.122252 
18   0.125735 
19   0.131739 
20   0.12174 
21   0.126796 
22   0.117648 
23   0.120167 
24   0.131018 
25   0.132434 
26   0.135508 
27   0.133086 
28   0.147925 
29   0.12031 
30   0.294389 
31   0.325817 
 
>  <lowdin_charges> 
31 
1   -0.176316 
2   -0.166453 
3   -0.280764 
4   -0.294362 
5   -0.170092 
6   -0.185981 
7   -0.294271 
8   -0.20928 
9   -0.130236 
10   -0.033889 
11   -0.057559 
12   0.033111 
13   -0.058118 
14   -0.360274 
15   -0.200384 
16   0.154014 
17   0.156934 
18   0.135928 
19   0.144341 
20   0.134014 
21   0.143005 
22   0.1494 
23   0.154075 
24   0.14647 
25   0.140994 
26   0.145143 
27   0.137021 
28   0.163769 
29   0.137929 
30   0.250733 
31   0.291095 
 
$$$$ 
 
