PCCDB-ID:  70908 
public computational chemistry database (PCCDB) project, http://pccdb.org 
 
 25 24  0  0  0  0  0  0  0  0999 V2000 
   -0.5097    1.7263   -0.1484 C   0  0  0  0  0  0  0  0  0  0  0  0 
    1.3324    1.0570    1.2483 C   0  0  0  0  0  0  0  0  0  0  0  0 
    1.7787    4.0290   -1.6463 C   0  0  0  0  0  0  0  0  0  0  0  0 
    1.9176    2.3637   -3.3937 C   0  0  0  0  0  0  0  0  0  0  0  0 
    3.7941    0.4390   -0.9299 C   0  0  0  0  0  0  0  0  0  0  0  0 
    1.7162    1.6550   -1.0885 C   0  0  0  0  0  0  0  0  0  0  0  0 
    0.9193    1.8723    0.1136 N   0  0  0  0  0  0  0  0  0  0  0  0 
    1.4130    2.6749   -2.0636 N   0  0  0  0  0  0  0  0  0  0  0  0 
    3.1030    1.6595   -0.7345 O   0  0  0  0  0  0  0  0  0  0  0  0 
   -1.0729    2.0417    0.7364 H   0  0  0  0  0  0  0  0  0  0  0  0 
   -0.7973    0.6808   -0.3796 H   0  0  0  0  0  0  0  0  0  0  0  0 
   -0.7934    2.3546   -0.9933 H   0  0  0  0  0  0  0  0  0  0  0  0 
    0.7326    1.3386    2.1203 H   0  0  0  0  0  0  0  0  0  0  0  0 
    2.3820    1.2427    1.4775 H   0  0  0  0  0  0  0  0  0  0  0  0 
    1.1884   -0.0298    1.0818 H   0  0  0  0  0  0  0  0  0  0  0  0 
    1.3018    4.7497   -2.3203 H   0  0  0  0  0  0  0  0  0  0  0  0 
    2.8674    4.2000   -1.6662 H   0  0  0  0  0  0  0  0  0  0  0  0 
    1.4183    4.1981   -0.6304 H   0  0  0  0  0  0  0  0  0  0  0  0 
    1.5146    3.0879   -4.1104 H   0  0  0  0  0  0  0  0  0  0  0  0 
    1.5809    1.3659   -3.6979 H   0  0  0  0  0  0  0  0  0  0  0  0 
    3.0196    2.3959   -3.4616 H   0  0  0  0  0  0  0  0  0  0  0  0 
    4.8499    0.6419   -0.7296 H   0  0  0  0  0  0  0  0  0  0  0  0 
    3.6968    0.0700   -1.9614 H   0  0  0  0  0  0  0  0  0  0  0  0 
    3.4520   -0.3501   -0.2440 H   0  0  0  0  0  0  0  0  0  0  0  0 
    1.4831    0.6776   -1.5595 H   0  0  0  0  0  0  0  0  0  0  0  0 
  1  7  1  0  0  0  0 
  1 10  1  0  0  0  0 
  2 14  1  0  0  0  0 
  2 13  1  0  0  0  0 
  3 18  1  0  0  0  0 
  4  8  1  0  0  0  0 
  5  9  1  0  0  0  0 
  5 22  1  0  0  0  0 
  5 24  1  0  0  0  0 
  6  9  1  0  0  0  0 
  6  7  1  0  0  0  0 
  7  2  1  0  0  0  0 
  8  3  1  0  0  0  0 
  8  6  1  0  0  0  0 
 11  1  1  0  0  0  0 
 12  1  1  0  0  0  0 
 15  2  1  0  0  0  0 
 16  3  1  0  0  0  0 
 17  3  1  0  0  0  0 
 19  4  1  0  0  0  0 
 20  4  1  0  0  0  0 
 21  4  1  0  0  0  0 
 23  5  1  0  0  0  0 
 25  6  1  0  0  0  0 
M  END 
>  <HBA> 
3 
 
>  <HBD> 
0 
 
>  <TPSA> 
15.71 
 
>  <cid> 
70908 
 
>  <dipole> 
1.45 
 
>  <excitation_energy_1> 
5.301 
 
>  <excitation_energy_2> 
5.509 
 
>  <excitation_energy_3> 
5.717 
 
>  <excitation_energy_4> 
5.749 
 
>  <homo_energy> 
-5.641 
 
>  <homo_lumo_gap> 
7.856 
 
>  <logP> 
0.04 
 
>  <lumo_energy> 
2.215 
 
>  <melting_point> 
-30.24 
 
>  <molecular_refractivity> 
37.83 
 
>  <oscillator_strength_1> 
0.0139 
 
>  <oscillator_strength_2> 
0.0334 
 
>  <oscillator_strength_3> 
0.0036 
 
>  <oscillator_strength_4> 
0.0191 
 
>  <open_babel_can_smiles> 
COC(N(C)C)N(C)C 
 
>  <mulliken_charges> 
25 
1   -0.304072 
2   -0.303209 
3   -0.30576 
4   -0.302155 
5   -0.204587 
6   0.417603 
7   -0.389724 
8   -0.38001 
9   -0.48583 
10   0.14568 
11   0.111902 
12   0.175786 
13   0.146927 
14   0.173973 
15   0.109007 
16   0.13799 
17   0.136786 
18   0.173783 
19   0.149491 
20   0.142629 
21   0.133301 
22   0.158623 
23   0.136436 
24   0.135156 
25   0.090273 
 
>  <lowdin_charges> 
25 
1   -0.361812 
2   -0.357391 
3   -0.360447 
4   -0.355376 
5   -0.281038 
6   0.099191 
7   -0.182388 
8   -0.174378 
9   -0.278739 
10   0.149224 
11   0.117127 
12   0.164807 
13   0.150875 
14   0.161436 
15   0.113901 
16   0.145643 
17   0.130916 
18   0.163819 
19   0.151735 
20   0.146048 
21   0.126119 
22   0.153829 
23   0.133443 
24   0.133882 
25   0.109574 
 
$$$$ 
 
