PCCDB-ID:  51588 
public computational chemistry database (PCCDB) project, http://pccdb.org 
 
 37 37  0  0  0  0  0  0  0  0999 V2000 
    0.6376    4.1276   -1.1248 C   0  0  0  0  0  0  0  0  0  0  0  0 
    4.8283    6.0882    0.8605 C   0  0  0  0  0  0  0  0  0  0  0  0 
    1.2873    1.4972    0.0546 C   0  0  0  0  0  0  0  0  0  0  0  0 
    5.5066    3.4693    2.0544 C   0  0  0  0  0  0  0  0  0  0  0  0 
    4.8456   -0.7937    1.4907 C   0  0  0  0  0  0  0  0  0  0  0  0 
    3.6148   -1.5778    1.9556 C   0  0  0  0  0  0  0  0  0  0  0  0 
    4.5091    0.4690    0.7056 C   0  0  0  0  0  0  0  0  0  0  0  0 
    2.7652    5.0066   -0.1013 C   0  0  0  0  0  0  0  0  0  0  0  0 
    1.8962    3.9332   -0.3112 C   0  0  0  0  0  0  0  0  0  0  0  0 
    3.9349    4.8873    0.6528 C   0  0  0  0  0  0  0  0  0  0  0  0 
    2.2105    2.6779    0.2419 C   0  0  0  0  0  0  0  0  0  0  0  0 
    4.2639    3.6392    1.2128 C   0  0  0  0  0  0  0  0  0  0  0  0 
    2.8421   -2.2071    0.8161 C   0  0  0  0  0  0  0  0  0  0  0  0 
    3.4002    2.5549    0.9801 C   0  0  0  0  0  0  0  0  0  0  0  0 
    3.2482   -2.3818   -0.3129 O   0  0  0  0  0  0  0  0  0  0  0  0 
    1.6017   -2.5935    1.2073 O   0  0  0  0  0  0  0  0  0  0  0  0 
    3.7175    1.3241    1.5441 O   0  0  0  0  0  0  0  0  0  0  0  0 
    0.5788    5.1474   -1.5173 H   0  0  0  0  0  0  0  0  0  0  0  0 
   -0.2667    3.9499   -0.5275 H   0  0  0  0  0  0  0  0  0  0  0  0 
    0.5910    3.4380   -1.9774 H   0  0  0  0  0  0  0  0  0  0  0  0 
    4.4539    6.9556    0.3082 H   0  0  0  0  0  0  0  0  0  0  0  0 
    5.8558    5.8961    0.5257 H   0  0  0  0  0  0  0  0  0  0  0  0 
    4.8914    6.3716    1.9197 H   0  0  0  0  0  0  0  0  0  0  0  0 
    0.2486    1.7668    0.2799 H   0  0  0  0  0  0  0  0  0  0  0  0 
    1.5672    0.6716    0.7104 H   0  0  0  0  0  0  0  0  0  0  0  0 
    1.3007    1.1286   -0.9804 H   0  0  0  0  0  0  0  0  0  0  0  0 
    5.5768    4.2513    2.8199 H   0  0  0  0  0  0  0  0  0  0  0  0 
    6.4222    3.5380    1.4506 H   0  0  0  0  0  0  0  0  0  0  0  0 
    5.5034    2.5022    2.5600 H   0  0  0  0  0  0  0  0  0  0  0  0 
    5.4728   -1.4314    0.8581 H   0  0  0  0  0  0  0  0  0  0  0  0 
    5.4366   -0.5151    2.3711 H   0  0  0  0  0  0  0  0  0  0  0  0 
    2.9400   -0.9409    2.5353 H   0  0  0  0  0  0  0  0  0  0  0  0 
    3.9131   -2.3959    2.6256 H   0  0  0  0  0  0  0  0  0  0  0  0 
    3.9555    0.2234   -0.2097 H   0  0  0  0  0  0  0  0  0  0  0  0 
    5.4322    0.9875    0.4113 H   0  0  0  0  0  0  0  0  0  0  0  0 
    2.5179    5.9734   -0.5357 H   0  0  0  0  0  0  0  0  0  0  0  0 
    1.1903   -3.0092    0.4259 H   0  0  0  0  0  0  0  0  0  0  0  0 
  1 19  1  0  0  0  0 
  1  9  1  0  0  0  0 
  2 23  1  0  0  0  0 
  3 11  1  0  0  0  0 
  3 24  1  0  0  0  0 
  3 25  1  0  0  0  0 
  4 29  1  0  0  0  0 
  4 27  1  0  0  0  0 
  5  6  1  0  0  0  0 
  5 31  1  0  0  0  0 
  6 32  1  0  0  0  0 
  6 33  1  0  0  0  0 
  7  5  1  0  0  0  0 
  7 17  1  0  0  0  0 
  8 10  1  0  0  0  0 
  9  8  2  0  0  0  0 
  9 11  1  0  0  0  0 
 10  2  1  0  0  0  0 
 10 12  2  0  0  0  0 
 11 14  2  0  0  0  0 
 12  4  1  0  0  0  0 
 13 16  1  0  0  0  0 
 13  6  1  0  0  0  0 
 14 12  1  0  0  0  0 
 14 17  1  0  0  0  0 
 15 13  2  0  0  0  0 
 18  1  1  0  0  0  0 
 20  1  1  0  0  0  0 
 21  2  1  0  0  0  0 
 22  2  1  0  0  0  0 
 26  3  1  0  0  0  0 
 28  4  1  0  0  0  0 
 30  5  1  0  0  0  0 
 34  7  1  0  0  0  0 
 35  7  1  0  0  0  0 
 36  8  1  0  0  0  0 
 37 16  1  0  0  0  0 
M  END 
>  <HBA> 
3 
 
>  <HBD> 
1 
 
>  <TPSA> 
46.53 
 
>  <cid> 
51588 
 
>  <dipole> 
0.32 
 
>  <excitation_energy_1> 
5.073 
 
>  <excitation_energy_2> 
5.359 
 
>  <excitation_energy_3> 
5.43 
 
>  <excitation_energy_4> 
5.475 
 
>  <homo_energy> 
-5.932 
 
>  <homo_lumo_gap> 
6.144 
 
>  <logP> 
3.164 
 
>  <lumo_energy> 
0.212 
 
>  <melting_point> 
102.94 
 
>  <molecular_refractivity> 
68.99 
 
>  <oscillator_strength_1> 
0.0003 
 
>  <oscillator_strength_2> 
0.0005 
 
>  <oscillator_strength_3> 
0.0015 
 
>  <oscillator_strength_4> 
0.0008 
 
>  <open_babel_can_smiles> 
OC(=O)CCCOc1c(C)c(C)cc(c1C)C 
 
>  <mulliken_charges> 
37 
1   -0.534421 
2   -0.53401 
3   -0.549078 
4   -0.543208 
5   -0.276368 
6   -0.356539 
7   -0.037885 
8   -0.24464 
9   0.122853 
10   0.122856 
11   0.118855 
12   0.115317 
13   0.580747 
14   0.208161 
15   -0.46706 
16   -0.568695 
17   -0.553356 
18   0.153393 
19   0.158676 
20   0.157398 
21   0.153492 
22   0.156489 
23   0.158828 
24   0.154561 
25   0.17277 
26   0.158098 
27   0.154943 
28   0.153384 
29   0.171745 
30   0.160405 
31   0.147697 
32   0.197956 
33   0.177882 
34   0.157117 
35   0.13538 
36   0.108625 
37   0.407633 
 
>  <lowdin_charges> 
37 
1   -0.440851 
2   -0.43891 
3   -0.445635 
4   -0.447707 
5   -0.280524 
6   -0.307466 
7   -0.127615 
8   -0.185226 
9   -0.007502 
10   -0.008793 
11   -0.033071 
12   -0.032349 
13   0.196515 
14   0.074808 
15   -0.272346 
16   -0.360912 
17   -0.246716 
18   0.155143 
19   0.157579 
20   0.157675 
21   0.156613 
22   0.155898 
23   0.156153 
24   0.156494 
25   0.165113 
26   0.156555 
27   0.158177 
28   0.155196 
29   0.165309 
30   0.163843 
31   0.153832 
32   0.180915 
33   0.176065 
34   0.145221 
35   0.139036 
36   0.148834 
37   0.360651 
 
$$$$ 
 
