PCCDB-ID:  49130 
public computational chemistry database (PCCDB) project, http://pccdb.org 
 
 35 35  0  0  1  0  0  0  0  0999 V2000 
    3.5737    2.4035    0.5674 C   0  0  0  0  0  0  0  0  0  0  0  0 
    5.2704   -3.3218    7.0644 C   0  0  0  0  0  0  0  0  0  0  0  0 
    2.9985    0.9900    0.3697 C   0  0  0  0  0  0  0  0  0  0  0  0 
    4.7260   -2.3467    6.0158 C   0  0  0  0  0  0  0  0  0  0  0  0 
    3.5249    0.0073    1.3800 C   0  0  0  0  0  0  0  0  0  0  0  0 
    5.0480   -2.7824    4.5789 C   0  0  0  0  0  0  0  0  0  0  0  0 
    4.2015   -1.1107    1.0759 C   0  0  0  0  0  0  0  0  0  0  0  0 
    4.4970   -1.7930    3.5432 C   0  0  0  0  0  0  0  0  0  0  0  0 
    6.2822   -2.2577    1.8121 C   0  0  0  0  0  0  0  0  0  0  0  0 
    4.1768   -3.5145    1.7164 C   0  0  0  0  0  0  0  0  0  0  0  0 
    6.2315   -4.5712    1.8523 C   0  0  0  0  0  0  0  0  0  0  0  0 
    4.7725   -2.1420    2.0432 C   0  0  2  0  0  0  0  0  0  0  0  0 
    6.9395   -3.3435    1.7333 N   0  0  0  0  0  0  0  0  0  0  0  0 
    4.8261   -4.6050    1.6368 N   0  0  0  0  0  0  0  0  0  0  0  0 
    6.9557   -1.0924    1.7311 O   0  0  0  0  0  0  0  0  0  0  0  0 
    2.8401   -3.5500    1.5438 O   0  0  0  0  0  0  0  0  0  0  0  0 
    6.8300   -5.5928    2.0984 O   0  0  0  0  0  0  0  0  0  0  0  0 
    3.1420    3.1006   -0.1581 H   0  0  0  0  0  0  0  0  0  0  0  0 
    4.6614    2.4093    0.4357 H   0  0  0  0  0  0  0  0  0  0  0  0 
    3.3538    2.7863    1.5709 H   0  0  0  0  0  0  0  0  0  0  0  0 
    5.0267   -2.9885    8.0793 H   0  0  0  0  0  0  0  0  0  0  0  0 
    6.3608   -3.4110    6.9938 H   0  0  0  0  0  0  0  0  0  0  0  0 
    4.8472   -4.3241    6.9301 H   0  0  0  0  0  0  0  0  0  0  0  0 
    3.2146    0.6343   -0.6448 H   0  0  0  0  0  0  0  0  0  0  0  0 
    1.9037    1.0386    0.4609 H   0  0  0  0  0  0  0  0  0  0  0  0 
    5.1421   -1.3449    6.1949 H   0  0  0  0  0  0  0  0  0  0  0  0 
    3.6369   -2.2520    6.1332 H   0  0  0  0  0  0  0  0  0  0  0  0 
    3.3349    0.2606    2.4232 H   0  0  0  0  0  0  0  0  0  0  0  0 
    4.6308   -3.7818    4.4028 H   0  0  0  0  0  0  0  0  0  0  0  0 
    6.1353   -2.8764    4.4660 H   0  0  0  0  0  0  0  0  0  0  0  0 
    4.3808   -1.3390    0.0233 H   0  0  0  0  0  0  0  0  0  0  0  0 
    4.9173   -0.7980    3.7385 H   0  0  0  0  0  0  0  0  0  0  0  0 
    3.4107   -1.7037    3.6738 H   0  0  0  0  0  0  0  0  0  0  0  0 
    6.3124   -0.3621    1.6905 H   0  0  0  0  0  0  0  0  0  0  0  0 
    2.5038   -2.6363    1.5170 H   0  0  0  0  0  0  0  0  0  0  0  0 
  1 20  1  0  0  0  0 
  2 21  1  0  0  0  0 
  3 25  1  0  0  0  0 
  3  1  1  0  0  0  0 
  3  5  1  0  0  0  0 
  4 27  1  0  0  0  0 
  4 26  1  0  0  0  0 
  4  2  1  0  0  0  0 
  5 28  1  0  0  0  0 
  6  4  1  0  0  0  0 
  7  5  2  0  0  0  0 
  8 33  1  0  0  0  0 
  8 32  1  0  0  0  0 
  8  6  1  0  0  0  0 
  9 12  1  0  0  0  0 
 10 12  1  0  0  0  0 
 11 17  2  0  0  0  0 
 12  7  1  6  0  0  0 
 12  8  1  0  0  0  0 
 13  9  2  0  0  0  0 
 13 11  2  0  0  0  0 
 14 10  2  0  0  0  0 
 14 11  1  0  0  0  0 
 15  9  1  0  0  0  0 
 16 10  1  0  0  0  0 
 18  1  1  0  0  0  0 
 19  1  1  0  0  0  0 
 22  2  1  0  0  0  0 
 23  2  1  0  0  0  0 
 24  3  1  0  0  0  0 
 29  6  1  0  0  0  0 
 30  6  1  0  0  0  0 
 31  7  1  0  0  0  0 
 34 15  1  0  0  0  0 
 35 16  1  0  0  0  0 
M  END 
>  <HBA> 
5 
 
>  <HBD> 
2 
 
>  <TPSA> 
75.27 
 
>  <cid> 
49130 
 
>  <dipole> 
10.64 
 
>  <excitation_energy_1> 
4.01 
 
>  <excitation_energy_2> 
4.259 
 
>  <excitation_energy_3> 
5.0 
 
>  <excitation_energy_4> 
5.329 
 
>  <homo_energy> 
-6.784 
 
>  <homo_lumo_gap> 
5.374 
 
>  <logP> 
2.153 
 
>  <lumo_energy> 
-1.41 
 
>  <melting_point> 
149.37 
 
>  <molecular_refractivity> 
71.37 
 
>  <oscillator_strength_1> 
0.0007 
 
>  <oscillator_strength_2> 
0.0004 
 
>  <oscillator_strength_3> 
0.06 
 
>  <oscillator_strength_4> 
0.0084 
 
>  <open_babel_can_smiles> 
CCCC[C@]1(/C=C/CC)C(=N[C](=[N]=C1O)=O)O 
 
>  <mulliken_charges> 
35 
1   -0.44752 
2   -0.444685 
3   -0.304484 
4   -0.252905 
5   -0.086131 
6   -0.282735 
7   -0.223076 
8   -0.268881 
9   0.543594 
10   0.542717 
11   0.615416 
12   -0.15342 
13   -0.465552 
14   -0.465451 
15   -0.575502 
16   -0.574975 
17   -0.431242 
18   0.163282 
19   0.1542 
20   0.152753 
21   0.14554 
22   0.153309 
23   0.153343 
24   0.157218 
25   0.160671 
26   0.131997 
27   0.132145 
28   0.150303 
29   0.167566 
30   0.167656 
31   0.165671 
32   0.145174 
33   0.145332 
34   0.413884 
35   0.414787 
 
>  <lowdin_charges> 
35 
1   -0.44029 
2   -0.439942 
3   -0.267268 
4   -0.267079 
5   -0.150744 
6   -0.284523 
7   -0.207935 
8   -0.263897 
9   0.145864 
10   0.146158 
11   0.17751 
12   -0.060354 
13   -0.185501 
14   -0.185293 
15   -0.330231 
16   -0.329311 
17   -0.212777 
18   0.162136 
19   0.150699 
20   0.151826 
21   0.151148 
22   0.150829 
23   0.152143 
24   0.153908 
25   0.15687 
26   0.138197 
27   0.136963 
28   0.159417 
29   0.157204 
30   0.155888 
31   0.167012 
32   0.147233 
33   0.145988 
34   0.359726 
35   0.358428 
 
$$$$ 
 
