PCCDB-ID:  6584 
public computational chemistry database (PCCDB) project, http://pccdb.org 
 
 11 10  0  0  0  0  0  0  0  0999 V2000 
    0.8658   -0.0063   -0.2301 C   0  0  0  0  0  0  0  0  0  0  0  0 
    3.9945    1.0512    1.4166 C   0  0  0  0  0  0  0  0  0  0  0  0 
    2.2764   -0.1143    0.3004 C   0  0  0  0  0  0  0  0  0  0  0  0 
    2.9803   -1.0982    0.2439 O   0  0  0  0  0  0  0  0  0  0  0  0 
    2.6670    1.0516    0.8679 O   0  0  0  0  0  0  0  0  0  0  0  0 
    0.5979   -0.9328   -0.7390 H   0  0  0  0  0  0  0  0  0  0  0  0 
    0.7825    0.8392   -0.9202 H   0  0  0  0  0  0  0  0  0  0  0  0 
    0.1692    0.1762    0.5952 H   0  0  0  0  0  0  0  0  0  0  0  0 
    4.1385    2.0475    1.8360 H   0  0  0  0  0  0  0  0  0  0  0  0 
    4.7339    0.8527    0.6359 H   0  0  0  0  0  0  0  0  0  0  0  0 
    4.0900    0.2890    2.1947 H   0  0  0  0  0  0  0  0  0  0  0  0 
  1  3  1  0  0  0  0 
  1  8  1  0  0  0  0 
  2  9  1  0  0  0  0 
  2 11  1  0  0  0  0 
  3  5  1  0  0  0  0 
  4  3  2  0  0  0  0 
  5  2  1  0  0  0  0 
  6  1  1  0  0  0  0 
  7  1  1  0  0  0  0 
 10  2  1  0  0  0  0 
M  END 
>  <HBA> 
2 
 
>  <HBD> 
0 
 
>  <TPSA> 
26.3 
 
>  <cid> 
6584 
 
>  <dipole> 
1.78 
 
>  <excitation_energy_1> 
5.824 
 
>  <excitation_energy_2> 
6.998 
 
>  <excitation_energy_3> 
7.493 
 
>  <excitation_energy_4> 
7.735 
 
>  <homo_energy> 
-7.334 
 
>  <homo_lumo_gap> 
7.728 
 
>  <logP> 
0.179 
 
>  <lumo_energy> 
0.395 
 
>  <melting_point> 
-12.13 
 
>  <molecular_refractivity> 
17.82 
 
>  <oscillator_strength_1> 
0.0013 
 
>  <oscillator_strength_2> 
0.0257 
 
>  <oscillator_strength_3> 
0.012 
 
>  <oscillator_strength_4> 
0.0109 
 
>  <open_babel_can_smiles> 
COC(=O)C 
 
>  <mulliken_charges> 
11 
1   -0.521743 
2   -0.216681 
3   0.596038 
4   -0.466193 
5   -0.43935 
6   0.182703 
7   0.180959 
8   0.182392 
9   0.162768 
10   0.16946 
11   0.169647 
 
>  <lowdin_charges> 
11 
1   -0.466704 
2   -0.279278 
3   0.198943 
4   -0.263499 
5   -0.199999 
6   0.176112 
7   0.177496 
8   0.178834 
9   0.159148 
10   0.159597 
11   0.159349 
 
$$$$ 
 
