PCCDB-ID:  11420 
public computational chemistry database (PCCDB) project, http://pccdb.org 
 
 17 17  0  0  0  0  0  0  0  0999 V2000 
    0.8865   -0.0362   -0.1824 C   0  0  0  0  0  0  0  0  0  0  0  0 
    2.4207   -2.5848   -0.3453 C   0  0  0  0  0  0  0  0  0  0  0  0 
    4.5052    1.0792    0.2262 C   0  0  0  0  0  0  0  0  0  0  0  0 
    3.1157    1.1233    0.1207 C   0  0  0  0  0  0  0  0  0  0  0  0 
    5.1254   -0.1636    0.1389 C   0  0  0  0  0  0  0  0  0  0  0  0 
    2.3910   -0.0548   -0.0670 C   0  0  0  0  0  0  0  0  0  0  0  0 
    3.1200   -1.2628   -0.1421 C   0  0  0  0  0  0  0  0  0  0  0  0 
    4.4570   -1.3093   -0.0413 N   0  0  0  0  0  0  0  0  0  0  0  0 
    0.4992    0.9846   -0.1056 H   0  0  0  0  0  0  0  0  0  0  0  0 
    0.4114   -0.6340    0.6060 H   0  0  0  0  0  0  0  0  0  0  0  0 
    0.5473   -0.4514   -1.1400 H   0  0  0  0  0  0  0  0  0  0  0  0 
    1.8536   -2.6021   -1.2853 H   0  0  0  0  0  0  0  0  0  0  0  0 
    1.7038   -2.7917    0.4602 H   0  0  0  0  0  0  0  0  0  0  0  0 
    3.1625   -3.3854   -0.3688 H   0  0  0  0  0  0  0  0  0  0  0  0 
    5.0892    1.9831    0.3723 H   0  0  0  0  0  0  0  0  0  0  0  0 
    2.5895    2.0736    0.1830 H   0  0  0  0  0  0  0  0  0  0  0  0 
    6.2084   -0.2507    0.2142 H   0  0  0  0  0  0  0  0  0  0  0  0 
  1  9  1  0  0  0  0 
  1  6  1  0  0  0  0 
  1 10  1  0  0  0  0 
  2  7  1  0  0  0  0 
  2 13  1  0  0  0  0 
  3 15  1  0  0  0  0 
  4 16  1  0  0  0  0 
  4  3  2  0  0  0  0 
  5 17  1  0  0  0  0 
  5  3  1  0  0  0  0 
  6  4  1  0  0  0  0 
  7  6  2  0  0  0  0 
  7  8  1  0  0  0  0 
  8  5  2  0  0  0  0 
 11  1  1  0  0  0  0 
 12  2  1  0  0  0  0 
 14  2  1  0  0  0  0 
M  END 
>  <HBA> 
1 
 
>  <HBD> 
0 
 
>  <TPSA> 
12.89 
 
>  <cid> 
11420 
 
>  <dipole> 
2.09 
 
>  <excitation_energy_1> 
4.921 
 
>  <excitation_energy_2> 
5.173 
 
>  <excitation_energy_3> 
5.321 
 
>  <excitation_energy_4> 
6.037 
 
>  <homo_energy> 
-6.574 
 
>  <homo_lumo_gap> 
6.242 
 
>  <logP> 
1.698 
 
>  <lumo_energy> 
-0.332 
 
>  <melting_point> 
27.5 
 
>  <molecular_refractivity> 
34.17 
 
>  <oscillator_strength_1> 
0.0042 
 
>  <oscillator_strength_2> 
0.0 
 
>  <oscillator_strength_3> 
0.059 
 
>  <oscillator_strength_4> 
0.0607 
 
>  <open_babel_can_smiles> 
Cc1ncccc1C 
 
>  <mulliken_charges> 
17 
1   -0.534042 
2   -0.51829 
3   -0.138552 
4   -0.153347 
5   0.03294 
6   0.142017 
7   0.257455 
8   -0.463591 
9   0.155474 
10   0.16451 
11   0.164351 
12   0.156636 
13   0.156325 
14   0.177666 
15   0.132526 
16   0.13189 
17   0.136033 
 
>  <lowdin_charges> 
17 
1   -0.441435 
2   -0.449251 
3   -0.182092 
4   -0.14179 
5   -0.092184 
6   -0.023455 
7   0.046118 
8   -0.159292 
9   0.157031 
10   0.162519 
11   0.161374 
12   0.158739 
13   0.159253 
14   0.172276 
15   0.162569 
16   0.157718 
17   0.151901 
 
$$$$ 
 
