PCCDB-ID:  8385 
public computational chemistry database (PCCDB) project, http://pccdb.org 
 
 20 20  0  0  0  0  0  0  0  0999 V2000 
    0.9947   -0.6806    0.3552 C   0  0  0  0  0  0  0  0  0  0  0  0 
    3.3920   -4.1432    0.2533 C   0  0  0  0  0  0  0  0  0  0  0  0 
    2.5879   -3.0134    0.3154 C   0  0  0  0  0  0  0  0  0  0  0  0 
    5.3550   -2.7415    0.0052 C   0  0  0  0  0  0  0  0  0  0  0  0 
    4.7690   -3.9982    0.0957 C   0  0  0  0  0  0  0  0  0  0  0  0 
    4.5502   -1.6153    0.0942 C   0  0  0  0  0  0  0  0  0  0  0  0 
    3.1428   -1.7213    0.2395 C   0  0  0  0  0  0  0  0  0  0  0  0 
    5.6167   -5.1911    0.0205 N   0  0  0  0  0  0  0  0  0  0  0  0 
    5.2301   -0.3105    0.0387 N   0  0  0  0  0  0  0  0  0  0  0  0 
    5.0610   -6.2872    0.1003 O   0  0  0  0  0  0  0  0  0  0  0  0 
    6.8274   -5.0231   -0.1170 O   0  0  0  0  0  0  0  0  0  0  0  0 
    6.2827   -0.2624   -0.5984 O   0  0  0  0  0  0  0  0  0  0  0  0 
    4.7291    0.6288    0.6481 O   0  0  0  0  0  0  0  0  0  0  0  0 
    2.4167   -0.5967    0.2557 O   0  0  0  0  0  0  0  0  0  0  0  0 
    0.6466    0.3520    0.3396 H   0  0  0  0  0  0  0  0  0  0  0  0 
    0.6924   -1.1562    1.2950 H   0  0  0  0  0  0  0  0  0  0  0  0 
    0.5692   -1.2273   -0.4943 H   0  0  0  0  0  0  0  0  0  0  0  0 
    2.9661   -5.1370    0.3175 H   0  0  0  0  0  0  0  0  0  0  0  0 
    1.5177   -3.1355    0.4234 H   0  0  0  0  0  0  0  0  0  0  0  0 
    6.4230   -2.6349   -0.1313 H   0  0  0  0  0  0  0  0  0  0  0  0 
  1 16  1  0  0  0  0 
  2  3  1  0  0  0  0 
  2 18  1  0  0  0  0 
  3 19  1  0  0  0  0 
  4  6  2  0  0  0  0 
  4  5  1  0  0  0  0 
  5  2  2  0  0  0  0 
  6  7  1  0  0  0  0 
  7 14  1  0  0  0  0 
  7  3  2  0  0  0  0 
  8  5  1  0  0  0  0 
  8 10  2  0  0  0  0 
  9  6  1  0  0  0  0 
  9 13  2  0  0  0  0 
 11  8  2  0  0  0  0 
 12  9  2  0  0  0  0 
 14  1  1  0  0  0  0 
 15  1  1  0  0  0  0 
 17  1  1  0  0  0  0 
 20  4  1  0  0  0  0 
M  END 
>  <HBA> 
1 
 
>  <HBD> 
0 
 
>  <TPSA> 
100.87 
 
>  <cid> 
8385 
 
>  <dipole> 
6.68 
 
>  <excitation_energy_1> 
3.709 
 
>  <excitation_energy_2> 
3.777 
 
>  <excitation_energy_3> 
4.003 
 
>  <excitation_energy_4> 
4.221 
 
>  <homo_energy> 
-7.437 
 
>  <homo_lumo_gap> 
4.708 
 
>  <logP> 
2.558 
 
>  <lumo_energy> 
-2.729 
 
>  <melting_point> 
88.02 
 
>  <molecular_refractivity> 
50.58 
 
>  <oscillator_strength_1> 
0.0132 
 
>  <oscillator_strength_2> 
0.0 
 
>  <oscillator_strength_3> 
0.0372 
 
>  <oscillator_strength_4> 
0.1199 
 
>  <open_babel_can_smiles> 
COc1ccc(cc1N(=O)=O)N(=O)=O 
 
>  <mulliken_charges> 
20 
1   -0.232121 
2   -0.134627 
3   -0.217195 
4   -0.177307 
5   0.269255 
6   0.226209 
7   0.404422 
8   0.378919 
9   0.362314 
10   -0.395443 
11   -0.388353 
12   -0.379208 
13   -0.36561 
14   -0.472585 
15   0.196962 
16   0.170544 
17   0.168239 
18   0.195889 
19   0.163674 
20   0.226022 
 
>  <lowdin_charges> 
20 
1   -0.273324 
2   -0.108387 
3   -0.198819 
4   -0.108067 
5   -0.01423 
6   -0.014724 
7   0.129665 
8   0.306698 
9   0.308054 
10   -0.246575 
11   -0.237516 
12   -0.241034 
13   -0.22311 
14   -0.151405 
15   0.177248 
16   0.156981 
17   0.156594 
18   0.1944 
19   0.176819 
20   0.210732 
 
$$$$ 
 
