PCCDB-ID:  36281 
public computational chemistry database (PCCDB) project, http://pccdb.org 
 
 37 39  0  0  1  0  0  0  0  0999 V2000 
    1.5191    1.0971    1.2293 C   0  0  0  0  0  0  0  0  0  0  0  0 
    8.0326    0.7850   -0.2912 C   0  0  0  0  0  0  0  0  0  0  0  0 
    2.9588    0.8741    1.7058 C   0  0  0  0  0  0  0  0  0  0  0  0 
    5.7250   -0.9050    5.7065 C   0  0  0  0  0  0  0  0  0  0  0  0 
    4.9104   -1.8830    5.1269 C   0  0  0  0  0  0  0  0  0  0  0  0 
    6.2843    0.1042    4.9186 C   0  0  0  0  0  0  0  0  0  0  0  0 
    4.6510   -1.8615    3.7541 C   0  0  0  0  0  0  0  0  0  0  0  0 
    3.6127   -0.3451    1.0425 C   0  0  0  0  0  0  0  0  0  0  0  0 
    5.6294   -1.8576    0.6329 C   0  0  0  0  0  0  0  0  0  0  0  0 
    6.6147   -1.2024   -0.3371 C   0  0  0  0  0  0  0  0  0  0  0  0 
    6.4981    1.1271    2.5187 C   0  0  0  0  0  0  0  0  0  0  0  0 
    6.0219    0.1268    3.5486 C   0  0  0  0  0  0  0  0  0  0  0  0 
    5.2112   -0.8541    2.9662 C   0  0  0  0  0  0  0  0  0  0  0  0 
    6.0748    0.5134    1.1606 C   0  0  2  0  0  0  0  0  0  0  0  0 
    5.0689   -0.6587    1.4655 C   0  0  2  0  0  0  0  0  0  0  0  0 
    7.1954   -0.1286    0.4624 N   0  0  0  0  0  0  0  0  0  0  0  0 
    1.0678    1.9684    1.7173 H   0  0  0  0  0  0  0  0  0  0  0  0 
    0.8889    0.2273    1.4526 H   0  0  0  0  0  0  0  0  0  0  0  0 
    1.4786    1.2640    0.1457 H   0  0  0  0  0  0  0  0  0  0  0  0 
    8.8623    0.2347   -0.7487 H   0  0  0  0  0  0  0  0  0  0  0  0 
    8.4613    1.5422    0.3744 H   0  0  0  0  0  0  0  0  0  0  0  0 
    7.4825    1.3119   -1.0974 H   0  0  0  0  0  0  0  0  0  0  0  0 
    2.9686    0.7459    2.7954 H   0  0  0  0  0  0  0  0  0  0  0  0 
    3.5512    1.7750    1.4962 H   0  0  0  0  0  0  0  0  0  0  0  0 
    5.9249   -0.9309    6.7746 H   0  0  0  0  0  0  0  0  0  0  0  0 
    4.4800   -2.6657    5.7464 H   0  0  0  0  0  0  0  0  0  0  0  0 
    6.9201    0.8619    5.3716 H   0  0  0  0  0  0  0  0  0  0  0  0 
    4.0215   -2.6281    3.3069 H   0  0  0  0  0  0  0  0  0  0  0  0 
    3.5919   -0.2166   -0.0501 H   0  0  0  0  0  0  0  0  0  0  0  0 
    2.9980   -1.2326    1.2538 H   0  0  0  0  0  0  0  0  0  0  0  0 
    6.1612   -2.5561    1.2856 H   0  0  0  0  0  0  0  0  0  0  0  0 
    4.8384   -2.4117    0.1164 H   0  0  0  0  0  0  0  0  0  0  0  0 
    6.0847   -0.8151   -1.2324 H   0  0  0  0  0  0  0  0  0  0  0  0 
    7.3969   -1.8850   -0.6905 H   0  0  0  0  0  0  0  0  0  0  0  0 
    7.5824    1.2847    2.5591 H   0  0  0  0  0  0  0  0  0  0  0  0 
    6.0259    2.1065    2.6770 H   0  0  0  0  0  0  0  0  0  0  0  0 
    5.6015    1.2748    0.5125 H   0  0  0  0  0  0  0  0  0  0  0  0 
  1 18  1  0  0  0  0 
  1  3  1  0  0  0  0 
  1 17  1  0  0  0  0 
  2 21  1  0  0  0  0 
  2 16  1  0  0  0  0 
  3 23  1  0  0  0  0 
  4 25  1  0  0  0  0 
  5  4  1  0  0  0  0 
  5 26  1  0  0  0  0 
  6 27  1  0  0  0  0 
  6  4  2  0  0  0  0 
  7  5  2  0  0  0  0 
  8 30  1  0  0  0  0 
  8  3  1  0  0  0  0 
  9 31  1  0  0  0  0 
  9 15  1  0  0  0  0 
 10 16  1  0  0  0  0 
 10  9  1  0  0  0  0 
 11 35  1  0  0  0  0 
 11 36  1  0  0  0  0 
 11 12  1  0  0  0  0 
 12  6  1  0  0  0  0 
 13 12  2  0  0  0  0 
 13  7  1  0  0  0  0 
 14 37  1  6  0  0  0 
 14 15  1  0  0  0  0 
 14 11  1  0  0  0  0 
 15  8  1  6  0  0  0 
 15 13  1  0  0  0  0 
 16 14  1  0  0  0  0 
 19  1  1  0  0  0  0 
 20  2  1  0  0  0  0 
 22  2  1  0  0  0  0 
 24  3  1  0  0  0  0 
 28  7  1  0  0  0  0 
 29  8  1  0  0  0  0 
 32  9  1  0  0  0  0 
 33 10  1  0  0  0  0 
 34 10  1  0  0  0  0 
M  END 
>  <HBA> 
1 
 
>  <HBD> 
0 
 
>  <TPSA> 
3.24 
 
>  <cid> 
36281 
 
>  <dipole> 
0.76 
 
>  <excitation_energy_1> 
4.894 
 
>  <excitation_energy_2> 
5.162 
 
>  <excitation_energy_3> 
5.185 
 
>  <excitation_energy_4> 
5.345 
 
>  <homo_energy> 
-5.655 
 
>  <homo_lumo_gap> 
5.725 
 
>  <logP> 
2.923 
 
>  <lumo_energy> 
0.071 
 
>  <melting_point> 
62.08 
 
>  <molecular_refractivity> 
72.49 
 
>  <oscillator_strength_1> 
0.007 
 
>  <oscillator_strength_2> 
0.0019 
 
>  <oscillator_strength_3> 
0.0377 
 
>  <oscillator_strength_4> 
0.0168 
 
>  <open_babel_can_smiles> 
CCC[C@@]12CCN([C@@H]1Cc1c2cccc1)C 
 
>  <mulliken_charges> 
37 
1   -0.441609 
2   -0.298295 
3   -0.260814 
4   -0.131084 
5   -0.135155 
6   -0.195296 
7   -0.19231 
8   -0.269662 
9   -0.29101 
10   -0.11632 
11   -0.349594 
12   0.129437 
13   0.116554 
14   0.027458 
15   -0.004293 
16   -0.394387 
17   0.142513 
18   0.141675 
19   0.139877 
20   0.149283 
21   0.149264 
22   0.115706 
23   0.148286 
24   0.133415 
25   0.123979 
26   0.123827 
27   0.121514 
28   0.12247 
29   0.128255 
30   0.129487 
31   0.152748 
32   0.133263 
33   0.105602 
34   0.138532 
35   0.155659 
36   0.146561 
37   0.104467 
 
>  <lowdin_charges> 
37 
1   -0.442687 
2   -0.360991 
3   -0.277921 
4   -0.158095 
5   -0.16178 
6   -0.166157 
7   -0.16924 
8   -0.269898 
9   -0.282935 
10   -0.200491 
11   -0.281754 
12   -0.00929 
13   -0.01152 
14   -0.061539 
15   0.002125 
16   -0.183283 
17   0.150432 
18   0.146789 
19   0.143332 
20   0.151577 
21   0.150309 
22   0.119927 
23   0.146819 
24   0.139379 
25   0.153551 
26   0.15628 
27   0.155529 
28   0.154928 
29   0.136621 
30   0.140778 
31   0.156449 
32   0.14722 
33   0.112681 
34   0.145819 
35   0.156704 
36   0.150693 
37   0.119639 
 
$$$$ 
 
