PCCDB-ID:  21990 
public computational chemistry database (PCCDB) project, http://pccdb.org 
 
 34 36  0  0  1  0  0  0  0  0999 V2000 
   -1.7151    3.3321    0.0740 C   0  0  0  0  0  0  0  0  0  0  0  0 
   -2.8222    2.4251   -0.4707 C   0  0  0  0  0  0  0  0  0  0  0  0 
    2.8171   -2.4395    0.4753 C   0  0  0  0  0  0  0  0  0  0  0  0 
    1.7099   -3.3464   -0.0696 C   0  0  0  0  0  0  0  0  0  0  0  0 
   -0.3514    2.7294   -0.2608 C   0  0  0  0  0  0  0  0  0  0  0  0 
   -2.5875    0.9922    0.0054 C   0  0  0  0  0  0  0  0  0  0  0  0 
    2.5824   -1.0065   -0.0006 C   0  0  0  0  0  0  0  0  0  0  0  0 
    0.3463   -2.7438    0.2654 C   0  0  0  0  0  0  0  0  0  0  0  0 
    1.0591    0.8180   -0.1160 C   0  0  0  0  0  0  0  0  0  0  0  0 
   -1.0642   -0.8323    0.1212 C   0  0  0  0  0  0  0  0  0  0  0  0 
   -0.2402    1.3635    0.2706 N   0  0  2  0  0  0  0  0  0  0  0  0 
   -1.2551    0.5200   -0.3979 N   0  0  2  0  0  0  0  0  0  0  0  0 
    1.2500   -0.5344    0.4028 N   0  0  1  0  0  0  0  0  0  0  0  0 
    0.2351   -1.3778   -0.2657 N   0  0  1  0  0  0  0  0  0  0  0  0 
   -1.8094    3.4213    1.1639 H   0  0  0  0  0  0  0  0  0  0  0  0 
   -1.7870    4.3416   -0.3486 H   0  0  0  0  0  0  0  0  0  0  0  0 
   -2.8130    2.4439   -1.5681 H   0  0  0  0  0  0  0  0  0  0  0  0 
   -3.8111    2.7668   -0.1418 H   0  0  0  0  0  0  0  0  0  0  0  0 
    3.8060   -2.7812    0.1463 H   0  0  0  0  0  0  0  0  0  0  0  0 
    2.8079   -2.4586    1.5727 H   0  0  0  0  0  0  0  0  0  0  0  0 
    1.7819   -4.3560    0.3528 H   0  0  0  0  0  0  0  0  0  0  0  0 
    1.8043   -3.4354   -1.1595 H   0  0  0  0  0  0  0  0  0  0  0  0 
    0.4535    3.3164    0.1967 H   0  0  0  0  0  0  0  0  0  0  0  0 
   -0.2016    2.7405   -1.3563 H   0  0  0  0  0  0  0  0  0  0  0  0 
   -3.3178    0.3103   -0.4456 H   0  0  0  0  0  0  0  0  0  0  0  0 
   -2.7079    0.9435    1.1036 H   0  0  0  0  0  0  0  0  0  0  0  0 
    2.7028   -0.9576   -1.0988 H   0  0  0  0  0  0  0  0  0  0  0  0 
    3.3127   -0.3247    0.4506 H   0  0  0  0  0  0  0  0  0  0  0  0 
    0.1965   -2.7551    1.3609 H   0  0  0  0  0  0  0  0  0  0  0  0 
   -0.4586   -3.3307   -0.1923 H   0  0  0  0  0  0  0  0  0  0  0  0 
    1.8293    1.4539    0.3318 H   0  0  0  0  0  0  0  0  0  0  0  0 
    1.1702    0.8283   -1.2210 H   0  0  0  0  0  0  0  0  0  0  0  0 
   -1.8345   -1.4682   -0.3262 H   0  0  0  0  0  0  0  0  0  0  0  0 
   -1.1748   -0.8423    1.2263 H   0  0  0  0  0  0  0  0  0  0  0  0 
  1 15  1  0  0  0  0 
  2 18  1  0  0  0  0 
  2  6  1  0  0  0  0 
  2  1  1  0  0  0  0 
  3 20  1  0  0  0  0 
  4  8  1  0  0  0  0 
  4 21  1  0  0  0  0 
  4  3  1  0  0  0  0 
  5  1  1  0  0  0  0 
  5 23  1  0  0  0  0 
  6 26  1  0  0  0  0 
  7 13  1  0  0  0  0 
  7 28  1  0  0  0  0 
  7  3  1  0  0  0  0 
  8 29  1  0  0  0  0 
  9 11  1  0  0  0  0 
  9 31  1  0  0  0  0 
 10 34  1  0  0  0  0 
 11  5  1  6  0  0  0 
 12  6  1  1  0  0  0 
 12 10  1  0  0  0  0 
 12 11  1  0  0  0  0 
 13  9  1  6  0  0  0 
 14 10  1  1  0  0  0 
 14  8  1  0  0  0  0 
 14 13  1  0  0  0  0 
 16  1  1  0  0  0  0 
 17  2  1  0  0  0  0 
 19  3  1  0  0  0  0 
 22  4  1  0  0  0  0 
 24  5  1  0  0  0  0 
 25  6  1  0  0  0  0 
 27  7  1  0  0  0  0 
 30  8  1  0  0  0  0 
 32  9  1  0  0  0  0 
 33 10  1  0  0  0  0 
M  END 
>  <HBA> 
4 
 
>  <HBD> 
0 
 
>  <TPSA> 
12.96 
 
>  <cid> 
21990 
 
>  <dipole> 
0.0 
 
>  <excitation_energy_1> 
4.983 
 
>  <excitation_energy_2> 
5.017 
 
>  <excitation_energy_3> 
5.104 
 
>  <excitation_energy_4> 
5.131 
 
>  <homo_energy> 
-5.121 
 
>  <homo_lumo_gap> 
7.589 
 
>  <logP> 
0.292 
 
>  <lumo_energy> 
2.468 
 
>  <melting_point> 
49.06 
 
>  <molecular_refractivity> 
71.09 
 
>  <oscillator_strength_1> 
0.0131 
 
>  <oscillator_strength_2> 
0.0 
 
>  <oscillator_strength_3> 
0.0 
 
>  <oscillator_strength_4> 
0.0301 
 
>  <open_babel_can_smiles> 
C1CCN2N(C1)CN1N(C2)CCCC1 
 
>  <mulliken_charges> 
34 
1   -0.269335 
2   -0.268865 
3   -0.268813 
4   -0.269385 
5   -0.105295 
6   -0.105325 
7   -0.10534 
8   -0.105294 
9   0.070738 
10   0.070713 
11   -0.327827 
12   -0.327972 
13   -0.327992 
14   -0.327798 
15   0.141836 
16   0.134549 
17   0.141768 
18   0.134469 
19   0.134468 
20   0.141766 
21   0.134552 
22   0.141839 
23   0.139411 
24   0.122579 
25   0.139447 
26   0.122566 
27   0.12257 
28   0.139449 
29   0.122572 
30   0.139417 
31   0.142312 
32   0.114952 
33   0.142302 
34   0.114969 
 
>  <lowdin_charges> 
34 
1   -0.278454 
2   -0.278657 
3   -0.278649 
4   -0.278459 
5   -0.202557 
6   -0.203255 
7   -0.203256 
8   -0.202557 
9   -0.142322 
10   -0.142332 
11   -0.140306 
12   -0.14026 
13   -0.140265 
14   -0.140301 
15   0.144038 
16   0.146462 
17   0.143846 
18   0.14677 
19   0.146771 
20   0.143846 
21   0.146462 
22   0.144038 
23   0.148823 
24   0.122511 
25   0.149029 
26   0.122511 
27   0.122512 
28   0.14903 
29   0.122507 
30   0.148826 
31   0.151761 
32   0.110061 
33   0.151757 
34   0.110067 
 
$$$$ 
 
