PCCDB-ID:  7602 
public computational chemistry database (PCCDB) project, http://pccdb.org 
 
 30 30  0  0  0  0  0  0  0  0999 V2000 
    1.8944   -0.6210   -0.8317 C   0  0  0  0  0  0  0  0  0  0  0  0 
    2.1656    5.6195    1.5663 C   0  0  0  0  0  0  0  0  0  0  0  0 
    6.8562    3.8351   -1.7858 C   0  0  0  0  0  0  0  0  0  0  0  0 
    2.8618    0.1115    0.1156 C   0  0  0  0  0  0  0  0  0  0  0  0 
    1.6460    5.0279    0.2435 C   0  0  0  0  0  0  0  0  0  0  0  0 
    5.5725    3.4628   -2.5496 C   0  0  0  0  0  0  0  0  0  0  0  0 
    2.3144    2.5857    0.1379 C   0  0  0  0  0  0  0  0  0  0  0  0 
    4.1763    1.8416   -1.1901 C   0  0  0  0  0  0  0  0  0  0  0  0 
    3.5691    4.1686   -1.1673 C   0  0  0  0  0  0  0  0  0  0  0  0 
    3.1318    1.5409   -0.3079 C   0  0  0  0  0  0  0  0  0  0  0  0 
    2.5177    3.9056   -0.2820 C   0  0  0  0  0  0  0  0  0  0  0  0 
    4.4103    3.1495   -1.6298 C   0  0  0  0  0  0  0  0  0  0  0  0 
    1.7193   -1.6498   -0.4959 H   0  0  0  0  0  0  0  0  0  0  0  0 
    2.2970   -0.6591   -1.8502 H   0  0  0  0  0  0  0  0  0  0  0  0 
    0.9271   -0.1080   -0.8768 H   0  0  0  0  0  0  0  0  0  0  0  0 
    1.5125    6.4263    1.9192 H   0  0  0  0  0  0  0  0  0  0  0  0 
    3.1751    6.0274    1.4431 H   0  0  0  0  0  0  0  0  0  0  0  0 
    2.2113    4.8525    2.3477 H   0  0  0  0  0  0  0  0  0  0  0  0 
    7.6764    4.0541   -2.4794 H   0  0  0  0  0  0  0  0  0  0  0  0 
    7.1729    3.0162   -1.1302 H   0  0  0  0  0  0  0  0  0  0  0  0 
    6.6961    4.7187   -1.1577 H   0  0  0  0  0  0  0  0  0  0  0  0 
    3.8079   -0.4429    0.1617 H   0  0  0  0  0  0  0  0  0  0  0  0 
    2.4460    0.1021    1.1312 H   0  0  0  0  0  0  0  0  0  0  0  0 
    1.5840    5.8261   -0.5070 H   0  0  0  0  0  0  0  0  0  0  0  0 
    0.6225    4.6604    0.3922 H   0  0  0  0  0  0  0  0  0  0  0  0 
    5.7759    2.5974   -3.1931 H   0  0  0  0  0  0  0  0  0  0  0  0 
    5.2999    4.2899   -3.2178 H   0  0  0  0  0  0  0  0  0  0  0  0 
    1.4971    2.3653    0.8236 H   0  0  0  0  0  0  0  0  0  0  0  0 
    4.8193    1.0378   -1.5467 H   0  0  0  0  0  0  0  0  0  0  0  0 
    3.7334    5.1900   -1.5088 H   0  0  0  0  0  0  0  0  0  0  0  0 
  1 13  1  0  0  0  0 
  1  4  1  0  0  0  0 
  2 16  1  0  0  0  0 
  2 18  1  0  0  0  0 
  3 21  1  0  0  0  0 
  3 20  1  0  0  0  0 
  4 22  1  0  0  0  0 
  4 23  1  0  0  0  0 
  5 25  1  0  0  0  0 
  5  2  1  0  0  0  0 
  6  3  1  0  0  0  0 
  6 12  1  0  0  0  0 
  7 28  1  0  0  0  0 
  8 10  1  0  0  0  0 
  9 11  2  0  0  0  0 
 10  4  1  0  0  0  0 
 10  7  2  0  0  0  0 
 11  7  1  0  0  0  0 
 11  5  1  0  0  0  0 
 12  8  2  0  0  0  0 
 12  9  1  0  0  0  0 
 14  1  1  0  0  0  0 
 15  1  1  0  0  0  0 
 17  2  1  0  0  0  0 
 19  3  1  0  0  0  0 
 24  5  1  0  0  0  0 
 26  6  1  0  0  0  0 
 27  6  1  0  0  0  0 
 29  8  1  0  0  0  0 
 30  9  1  0  0  0  0 
M  END 
>  <HBA> 
0 
 
>  <HBD> 
0 
 
>  <TPSA> 
0.0 
 
>  <cid> 
7602 
 
>  <dipole> 
0.03 
 
>  <excitation_energy_1> 
5.106 
 
>  <excitation_energy_2> 
5.606 
 
>  <excitation_energy_3> 
5.781 
 
>  <excitation_energy_4> 
5.834 
 
>  <homo_energy> 
-6.207 
 
>  <homo_lumo_gap> 
6.425 
 
>  <logP> 
3.374 
 
>  <lumo_energy> 
0.218 
 
>  <melting_point> 
14.84 
 
>  <molecular_refractivity> 
55.76 
 
>  <oscillator_strength_1> 
0.0 
 
>  <oscillator_strength_2> 
0.0022 
 
>  <oscillator_strength_3> 
0.0676 
 
>  <oscillator_strength_4> 
0.0482 
 
>  <open_babel_can_smiles> 
CCc1cc(CC)cc(c1)CC 
 
>  <mulliken_charges> 
30 
1   -0.4324 
2   -0.432499 
3   -0.432297 
4   -0.339331 
5   -0.339317 
6   -0.339252 
7   -0.246239 
8   -0.247104 
9   -0.246813 
10   0.187797 
11   0.187841 
12   0.188188 
13   0.14138 
14   0.14854 
15   0.148549 
16   0.14147 
17   0.148283 
18   0.148524 
19   0.141434 
20   0.148663 
21   0.148025 
22   0.140729 
23   0.1407 
24   0.140605 
25   0.141033 
26   0.140384 
27   0.141103 
28   0.110689 
29   0.110663 
30   0.110652 
 
>  <lowdin_charges> 
30 
1   -0.438048 
2   -0.441076 
3   -0.442165 
4   -0.269714 
5   -0.270287 
6   -0.272112 
7   -0.183791 
8   -0.186112 
9   -0.18385 
10   0.002262 
11   0.002228 
12   0.003273 
13   0.147148 
14   0.149292 
15   0.14987 
16   0.149076 
17   0.149396 
18   0.15067 
19   0.148863 
20   0.151122 
21   0.15023 
22   0.147588 
23   0.146698 
24   0.148184 
25   0.146781 
26   0.14798 
27   0.14859 
28   0.149483 
29   0.150224 
30   0.148196 
 
$$$$ 
 
