PCCDB-ID:  61868 
public computational chemistry database (PCCDB) project, http://pccdb.org 
 
 22 21  0  0  0  0  0  0  0  0999 V2000 
   10.5817   -1.7332    3.4697 C   0  0  0  0  0  0  0  0  0  0  0  0 
    9.8675   -0.5810    4.1832 C   0  0  0  0  0  0  0  0  0  0  0  0 
    6.2914    2.6110    4.3675 C   0  0  0  0  0  0  0  0  0  0  0  0 
    7.2822    3.7720    4.5204 C   0  0  0  0  0  0  0  0  0  0  0  0 
    8.6349   -0.1049    3.4257 C   0  0  0  0  0  0  0  0  0  0  0  0 
    6.8390    1.4546    3.5367 C   0  0  0  0  0  0  0  0  0  0  0  0 
    8.3786    3.4583    5.3609 O   0  0  0  0  0  0  0  0  0  0  0  0 
    8.0221    0.9509    4.1529 O   0  0  0  0  0  0  0  0  0  0  0  0 
   11.4637   -2.0547    4.0331 H   0  0  0  0  0  0  0  0  0  0  0  0 
   10.9169   -1.4378    2.4680 H   0  0  0  0  0  0  0  0  0  0  0  0 
    9.9236   -2.6033    3.3572 H   0  0  0  0  0  0  0  0  0  0  0  0 
   10.5522    0.2676    4.3086 H   0  0  0  0  0  0  0  0  0  0  0  0 
    9.5606   -0.8890    5.1903 H   0  0  0  0  0  0  0  0  0  0  0  0 
    5.3752    2.9702    3.8791 H   0  0  0  0  0  0  0  0  0  0  0  0 
    6.0137    2.2479    5.3646 H   0  0  0  0  0  0  0  0  0  0  0  0 
    6.7789    4.6311    4.9782 H   0  0  0  0  0  0  0  0  0  0  0  0 
    7.6208    4.0936    3.5178 H   0  0  0  0  0  0  0  0  0  0  0  0 
    7.9163   -0.9323    3.2983 H   0  0  0  0  0  0  0  0  0  0  0  0 
    8.9114    0.2436    2.4156 H   0  0  0  0  0  0  0  0  0  0  0  0 
    7.0726    1.7981    2.5140 H   0  0  0  0  0  0  0  0  0  0  0  0 
    6.0938    0.6470    3.4506 H   0  0  0  0  0  0  0  0  0  0  0  0 
    8.6945    2.5849    5.0690 H   0  0  0  0  0  0  0  0  0  0  0  0 
  1  9  1  0  0  0  0 
  1  2  1  0  0  0  0 
  2 12  1  0  0  0  0 
  2 13  1  0  0  0  0 
  3  4  1  0  0  0  0 
  3 15  1  0  0  0  0 
  4 16  1  0  0  0  0 
  4  7  1  0  0  0  0 
  5  8  1  0  0  0  0 
  5  2  1  0  0  0  0 
  6  8  1  0  0  0  0 
  6  3  1  0  0  0  0 
 10  1  1  0  0  0  0 
 11  1  1  0  0  0  0 
 14  3  1  0  0  0  0 
 17  4  1  0  0  0  0 
 18  5  1  0  0  0  0 
 19  5  1  0  0  0  0 
 20  6  1  0  0  0  0 
 21  6  1  0  0  0  0 
 22  7  1  0  0  0  0 
M  END 
>  <HBA> 
2 
 
>  <HBD> 
1 
 
>  <TPSA> 
29.46 
 
>  <cid> 
61868 
 
>  <dipole> 
3.19 
 
>  <excitation_energy_1> 
6.514 
 
>  <excitation_energy_2> 
6.75 
 
>  <excitation_energy_3> 
6.88 
 
>  <excitation_energy_4> 
6.944 
 
>  <homo_energy> 
-6.664 
 
>  <homo_lumo_gap> 
8.825 
 
>  <logP> 
0.795 
 
>  <lumo_energy> 
2.161 
 
>  <melting_point> 
-16.89 
 
>  <molecular_refractivity> 
33.2 
 
>  <oscillator_strength_1> 
0.0098 
 
>  <oscillator_strength_2> 
0.0249 
 
>  <oscillator_strength_3> 
0.0027 
 
>  <oscillator_strength_4> 
0.0011 
 
>  <open_babel_can_smiles> 
CCCOCCCO 
 
>  <mulliken_charges> 
22 
1   -0.452293 
2   -0.272482 
3   -0.306148 
4   -0.012835 
5   0.001431 
6   -0.013016 
7   -0.639309 
8   -0.494015 
9   0.154115 
10   0.146569 
11   0.146403 
12   0.148754 
13   0.152303 
14   0.134161 
15   0.158186 
16   0.138315 
17   0.106484 
18   0.121974 
19   0.122122 
20   0.12278 
21   0.127465 
22   0.409037 
 
>  <lowdin_charges> 
22 
1   -0.444546 
2   -0.279254 
3   -0.303091 
4   -0.130836 
5   -0.128695 
6   -0.1293 
7   -0.484232 
8   -0.277702 
9   0.157149 
10   0.148256 
11   0.149184 
12   0.149711 
13   0.150725 
14   0.153046 
15   0.155258 
16   0.144459 
17   0.117055 
18   0.129005 
19   0.126355 
20   0.12591 
21   0.133002 
22   0.338543 
 
$$$$ 
 
