PCCDB-ID:  19026 
public computational chemistry database (PCCDB) project, http://pccdb.org 
 
 34 36  0  0  0  0  0  0  0  0999 V2000 
   -0.3109    1.7261   -2.9581 C   0  0  0  0  0  0  0  0  0  0  0  0 
    0.3909    2.7425   -2.2773 C   0  0  0  0  0  0  0  0  0  0  0  0 
   -0.6264    0.5280   -2.3302 C   0  0  0  0  0  0  0  0  0  0  0  0 
    0.7872    2.5805   -0.9551 C   0  0  0  0  0  0  0  0  0  0  0  0 
    0.5967   -2.9942   -2.0135 C   0  0  0  0  0  0  0  0  0  0  0  0 
   -0.8988   -4.5749   -0.7521 C   0  0  0  0  0  0  0  0  0  0  0  0 
    1.4632   -4.1982   -2.3977 C   0  0  0  0  0  0  0  0  0  0  0  0 
    0.0200   -5.7224   -1.1859 C   0  0  0  0  0  0  0  0  0  0  0  0 
   -1.0786   -2.0791   -0.2823 C   0  0  0  0  0  0  0  0  0  0  0  0 
    0.1853   -0.3327    1.1165 C   0  0  0  0  0  0  0  0  0  0  0  0 
   -0.1360   -3.2387   -0.6826 C   0  0  0  0  0  0  0  0  0  0  0  0 
   -0.4047   -0.7528   -0.0504 C   0  0  0  0  0  0  0  0  0  0  0  0 
   -0.2379    0.3295   -0.9931 C   0  0  0  0  0  0  0  0  0  0  0  0 
    0.4661    1.3721   -0.3272 C   0  0  0  0  0  0  0  0  0  0  0  0 
    0.6319   -5.4013   -2.4759 N   0  0  0  0  0  0  0  0  0  0  0  0 
    0.7154    0.9355    0.9571 N   0  0  0  0  0  0  0  0  0  0  0  0 
   -0.6082    1.8860   -3.9910 H   0  0  0  0  0  0  0  0  0  0  0  0 
    0.6241    3.6694   -2.7943 H   0  0  0  0  0  0  0  0  0  0  0  0 
   -1.1672   -0.2473   -2.8667 H   0  0  0  0  0  0  0  0  0  0  0  0 
    1.3250    3.3652   -0.4287 H   0  0  0  0  0  0  0  0  0  0  0  0 
   -0.1414   -2.8288   -2.8104 H   0  0  0  0  0  0  0  0  0  0  0  0 
    1.2174   -2.0934   -1.9488 H   0  0  0  0  0  0  0  0  0  0  0  0 
   -1.3475   -4.8084    0.2230 H   0  0  0  0  0  0  0  0  0  0  0  0 
   -1.7192   -4.4894   -1.4777 H   0  0  0  0  0  0  0  0  0  0  0  0 
    2.2844   -4.2986   -1.6587 H   0  0  0  0  0  0  0  0  0  0  0  0 
    1.9282   -4.0329   -3.3768 H   0  0  0  0  0  0  0  0  0  0  0  0 
   -0.5559   -6.6494   -1.2941 H   0  0  0  0  0  0  0  0  0  0  0  0 
    0.7729   -5.8968   -0.3898 H   0  0  0  0  0  0  0  0  0  0  0  0 
   -1.6127   -2.3774    0.6306 H   0  0  0  0  0  0  0  0  0  0  0  0 
   -1.8498   -1.9685   -1.0571 H   0  0  0  0  0  0  0  0  0  0  0  0 
    0.2677   -0.8420    2.0677 H   0  0  0  0  0  0  0  0  0  0  0  0 
    0.6278   -3.3283    0.1067 H   0  0  0  0  0  0  0  0  0  0  0  0 
    1.1943   -6.1878   -2.7942 H   0  0  0  0  0  0  0  0  0  0  0  0 
    1.1800    1.4672    1.6761 H   0  0  0  0  0  0  0  0  0  0  0  0 
  1  3  2  0  0  0  0 
  1  2  1  0  0  0  0 
  2  4  2  0  0  0  0 
  3 13  1  0  0  0  0 
  4 20  1  0  0  0  0 
  4 14  1  0  0  0  0 
  5 22  1  0  0  0  0 
  5 11  1  0  0  0  0 
  6 11  1  0  0  0  0 
  6 23  1  0  0  0  0 
  7  5  1  0  0  0  0 
  7 25  1  0  0  0  0 
  8  6  1  0  0  0  0 
  8 28  1  0  0  0  0 
  9 12  1  0  0  0  0 
  9 29  1  0  0  0  0 
 10 31  1  0  0  0  0 
 11  9  1  0  0  0  0 
 11 32  1  0  0  0  0 
 12 10  2  0  0  0  0 
 13 14  2  0  0  0  0 
 13 12  1  0  0  0  0 
 14 16  1  0  0  0  0 
 15  7  1  0  0  0  0 
 15  8  1  0  0  0  0 
 16 10  1  0  0  0  0 
 16 34  1  0  0  0  0 
 17  1  1  0  0  0  0 
 18  2  1  0  0  0  0 
 19  3  1  0  0  0  0 
 21  5  1  0  0  0  0 
 24  6  1  0  0  0  0 
 26  7  1  0  0  0  0 
 27  8  1  0  0  0  0 
 30  9  1  0  0  0  0 
 33 15  1  0  0  0  0 
M  END 
>  <HBA> 
1 
 
>  <HBD> 
2 
 
>  <TPSA> 
27.82 
 
>  <cid> 
19026 
 
>  <dipole> 
2.79 
 
>  <excitation_energy_1> 
4.53 
 
>  <excitation_energy_2> 
4.646 
 
>  <excitation_energy_3> 
4.813 
 
>  <excitation_energy_4> 
5.161 
 
>  <homo_energy> 
-5.238 
 
>  <homo_lumo_gap> 
5.195 
 
>  <logP> 
3.039 
 
>  <lumo_energy> 
-0.044 
 
>  <melting_point> 
146.2 
 
>  <molecular_refractivity> 
71.9 
 
>  <oscillator_strength_1> 
0.0678 
 
>  <oscillator_strength_2> 
0.0013 
 
>  <oscillator_strength_3> 
0.0237 
 
>  <oscillator_strength_4> 
0.0088 
 
>  <open_babel_can_smiles> 
N1CCC(CC1)Cc1c[nH]c2c1cccc2 
 
>  <mulliken_charges> 
34 
1   -0.141278 
2   -0.151829 
3   -0.208096 
4   -0.163223 
5   -0.255717 
6   -0.251077 
7   -0.135091 
8   -0.131816 
9   -0.350452 
10   -0.005426 
11   -0.074786 
12   0.076066 
13   0.074335 
14   0.311931 
15   -0.544386 
16   -0.690608 
17   0.118675 
18   0.120578 
19   0.126175 
20   0.118144 
21   0.133796 
22   0.14577 
23   0.122169 
24   0.137319 
25   0.104685 
26   0.13399 
27   0.132465 
28   0.103755 
29   0.133622 
30   0.138632 
31   0.143187 
32   0.111215 
33   0.292646 
34   0.324629 
 
>  <lowdin_charges> 
34 
1   -0.176367 
2   -0.165794 
3   -0.164632 
4   -0.190605 
5   -0.285002 
6   -0.282882 
7   -0.203913 
8   -0.204564 
9   -0.269878 
10   -0.138024 
11   -0.127921 
12   -0.060256 
13   -0.036452 
14   0.0314 
15   -0.36972 
16   -0.204193 
17   0.152536 
18   0.15478 
19   0.157004 
20   0.155093 
21   0.143153 
22   0.153591 
23   0.140215 
24   0.144878 
25   0.112475 
26   0.143774 
27   0.143144 
28   0.11227 
29   0.148388 
30   0.148753 
31   0.161669 
32   0.131939 
33   0.253751 
34   0.291391 
 
$$$$ 
 
