PCCDB-ID:  53661 
public computational chemistry database (PCCDB) project, http://pccdb.org 
 
 22 23  0  0  0  0  0  0  0  0999 V2000 
    0.7498    0.0250    0.0328 C   0  0  0  0  0  0  0  0  0  0  0  0 
    6.5128   -2.3778   -0.1640 C   0  0  0  0  0  0  0  0  0  0  0  0 
    7.2166   -1.1501   -0.1843 C   0  0  0  0  0  0  0  0  0  0  0  0 
    5.1372   -2.3867   -0.1177 C   0  0  0  0  0  0  0  0  0  0  0  0 
    6.5355    0.0473   -0.1575 C   0  0  0  0  0  0  0  0  0  0  0  0 
    2.9826   -1.1569   -0.0416 C   0  0  0  0  0  0  0  0  0  0  0  0 
    2.9682    1.2451   -0.0343 C   0  0  0  0  0  0  0  0  0  0  0  0 
    5.0208    2.5458   -0.0974 C   0  0  0  0  0  0  0  0  0  0  0  0 
    2.2587    0.0180   -0.0144 C   0  0  0  0  0  0  0  0  0  0  0  0 
    4.4023   -1.1713   -0.0894 C   0  0  0  0  0  0  0  0  0  0  0  0 
    4.3518    1.2784   -0.0799 C   0  0  0  0  0  0  0  0  0  0  0  0 
    5.1186    0.0665   -0.1094 C   0  0  0  0  0  0  0  0  0  0  0  0 
    5.5710    3.5713   -0.1118 N   0  0  0  0  0  0  0  0  0  0  0  0 
    0.3488   -0.9910    0.0933 H   0  0  0  0  0  0  0  0  0  0  0  0 
    0.3259    0.5007   -0.8605 H   0  0  0  0  0  0  0  0  0  0  0  0 
    0.3810    0.5851    0.9007 H   0  0  0  0  0  0  0  0  0  0  0  0 
    7.0636   -3.3140   -0.1848 H   0  0  0  0  0  0  0  0  0  0  0  0 
    8.3023   -1.1533   -0.2220 H   0  0  0  0  0  0  0  0  0  0  0  0 
    4.5909   -3.3266   -0.1021 H   0  0  0  0  0  0  0  0  0  0  0  0 
    7.0760    0.9892   -0.1732 H   0  0  0  0  0  0  0  0  0  0  0  0 
    2.4591   -2.1107   -0.0264 H   0  0  0  0  0  0  0  0  0  0  0  0 
    2.4177    2.1814   -0.0129 H   0  0  0  0  0  0  0  0  0  0  0  0 
  1 14  1  0  0  0  0 
  1 16  1  0  0  0  0 
  2  4  1  0  0  0  0 
  3  2  2  0  0  0  0 
  3  5  1  0  0  0  0 
  4 19  1  0  0  0  0 
  4 10  2  0  0  0  0 
  5 12  2  0  0  0  0 
  6 21  1  0  0  0  0 
  6  9  2  0  0  0  0 
  7  9  1  0  0  0  0 
  7 22  1  0  0  0  0 
  8 11  1  0  0  0  0 
  9  1  1  0  0  0  0 
 10  6  1  0  0  0  0 
 11  7  2  0  0  0  0 
 12 10  1  0  0  0  0 
 12 11  1  0  0  0  0 
 13  8  3  0  0  0  0 
 15  1  1  0  0  0  0 
 17  2  1  0  0  0  0 
 18  3  1  0  0  0  0 
 20  5  1  0  0  0  0 
M  END 
>  <HBA> 
1 
 
>  <HBD> 
0 
 
>  <TPSA> 
23.79 
 
>  <cid> 
53661 
 
>  <dipole> 
4.65 
 
>  <excitation_energy_1> 
3.999 
 
>  <excitation_energy_2> 
4.296 
 
>  <excitation_energy_3> 
5.194 
 
>  <excitation_energy_4> 
5.464 
 
>  <homo_energy> 
-6.231 
 
>  <homo_lumo_gap> 
4.446 
 
>  <logP> 
3.02 
 
>  <lumo_energy> 
-1.785 
 
>  <melting_point> 
91.23 
 
>  <molecular_refractivity> 
53.63 
 
>  <oscillator_strength_1> 
0.1068 
 
>  <oscillator_strength_2> 
0.0101 
 
>  <oscillator_strength_3> 
0.0252 
 
>  <oscillator_strength_4> 
0.647 
 
>  <open_babel_can_smiles> 
N#Cc1cc(C)cc2c1cccc2 
 
>  <mulliken_charges> 
22 
1   -0.533448 
2   -0.129183 
3   -0.13472 
4   -0.194466 
5   -0.194151 
6   -0.244817 
7   -0.201652 
8   0.230269 
9   0.178448 
10   0.135774 
11   0.098456 
12   0.118119 
13   -0.492016 
14   0.161552 
15   0.170823 
16   0.169588 
17   0.137608 
18   0.140864 
19   0.136116 
20   0.161194 
21   0.133083 
22   0.152559 
 
>  <lowdin_charges> 
22 
1   -0.441223 
2   -0.151956 
3   -0.145906 
4   -0.154557 
5   -0.154188 
6   -0.151609 
7   -0.136063 
8   -0.011477 
9   2.7e-05 
10   0.003302 
11   -0.023633 
12   0.00721 
13   -0.124392 
14   0.159969 
15   0.165954 
16   0.165547 
17   0.162838 
18   0.161991 
19   0.160965 
20   0.174895 
21   0.160218 
22   0.17209 
 
$$$$ 
 
