PCCDB-ID:  70308 
public computational chemistry database (PCCDB) project, http://pccdb.org 
 
 26 26  0  0  0  0  0  0  0  0999 V2000 
   -0.5520    0.5434    1.0702 C   0  0  0  0  0  0  0  0  0  0  0  0 
    0.6517    1.4304   -1.0028 C   0  0  0  0  0  0  0  0  0  0  0  0 
    1.9408    0.7075    1.0116 C   0  0  0  0  0  0  0  0  0  0  0  0 
   -2.1018   -3.1568   -2.7819 C   0  0  0  0  0  0  0  0  0  0  0  0 
   -0.9224   -3.7656   -2.3449 C   0  0  0  0  0  0  0  0  0  0  0  0 
   -2.3557   -1.8273   -2.4458 C   0  0  0  0  0  0  0  0  0  0  0  0 
   -0.0097   -3.0471   -1.5803 C   0  0  0  0  0  0  0  0  0  0  0  0 
   -1.4406   -1.1087   -1.6754 C   0  0  0  0  0  0  0  0  0  0  0  0 
   -0.2506   -1.7063   -1.2276 C   0  0  0  0  0  0  0  0  0  0  0  0 
    0.8207   -1.0366   -0.3927 C   0  0  0  0  0  0  0  0  0  0  0  0 
    0.6920    0.4082    0.1594 C   0  0  0  0  0  0  0  0  0  0  0  0 
    1.8336   -1.6752   -0.1420 O   0  0  0  0  0  0  0  0  0  0  0  0 
   -0.5663    1.5434    1.5195 H   0  0  0  0  0  0  0  0  0  0  0  0 
   -0.5150   -0.1865    1.8873 H   0  0  0  0  0  0  0  0  0  0  0  0 
   -1.4986    0.4030    0.5439 H   0  0  0  0  0  0  0  0  0  0  0  0 
    0.6302    2.4470   -0.5924 H   0  0  0  0  0  0  0  0  0  0  0  0 
   -0.2170    1.3177   -1.6555 H   0  0  0  0  0  0  0  0  0  0  0  0 
    1.5495    1.3429   -1.6253 H   0  0  0  0  0  0  0  0  0  0  0  0 
    1.8730    1.7241    1.4164 H   0  0  0  0  0  0  0  0  0  0  0  0 
    2.8563    0.6288    0.4191 H   0  0  0  0  0  0  0  0  0  0  0  0 
    2.0312    0.0068    1.8466 H   0  0  0  0  0  0  0  0  0  0  0  0 
   -2.8169   -3.7149   -3.3805 H   0  0  0  0  0  0  0  0  0  0  0  0 
   -0.7151   -4.8008   -2.6025 H   0  0  0  0  0  0  0  0  0  0  0  0 
   -3.2694   -1.3442   -2.7811 H   0  0  0  0  0  0  0  0  0  0  0  0 
    0.9115   -3.5042   -1.2362 H   0  0  0  0  0  0  0  0  0  0  0  0 
   -1.6702   -0.0792   -1.4350 H   0  0  0  0  0  0  0  0  0  0  0  0 
  1 13  1  0  0  0  0 
  1 14  1  0  0  0  0 
  2 16  1  0  0  0  0 
  2 11  1  0  0  0  0 
  3 19  1  0  0  0  0 
  3 21  1  0  0  0  0 
  4  6  2  0  0  0  0 
  4  5  1  0  0  0  0 
  5  7  2  0  0  0  0 
  6  8  1  0  0  0  0 
  7 25  1  0  0  0  0 
  7  9  1  0  0  0  0 
  8 26  1  0  0  0  0 
  8  9  2  0  0  0  0 
  9 10  1  0  0  0  0 
 10 12  2  0  0  0  0 
 10 11  1  0  0  0  0 
 11  3  1  0  0  0  0 
 11  1  1  0  0  0  0 
 15  1  1  0  0  0  0 
 17  2  1  0  0  0  0 
 18  2  1  0  0  0  0 
 20  3  1  0  0  0  0 
 22  4  1  0  0  0  0 
 23  5  1  0  0  0  0 
 24  6  1  0  0  0  0 
M  END 
>  <HBA> 
1 
 
>  <HBD> 
0 
 
>  <TPSA> 
17.07 
 
>  <cid> 
70308 
 
>  <dipole> 
2.68 
 
>  <excitation_energy_1> 
3.642 
 
>  <excitation_energy_2> 
4.7 
 
>  <excitation_energy_3> 
5.105 
 
>  <excitation_energy_4> 
5.458 
 
>  <homo_energy> 
-6.58 
 
>  <homo_lumo_gap> 
5.129 
 
>  <logP> 
2.915 
 
>  <lumo_energy> 
-1.45 
 
>  <melting_point> 
54.9 
 
>  <molecular_refractivity> 
50.8 
 
>  <oscillator_strength_1> 
0.0003 
 
>  <oscillator_strength_2> 
0.0211 
 
>  <oscillator_strength_3> 
0.2446 
 
>  <oscillator_strength_4> 
0.0011 
 
>  <open_babel_can_smiles> 
O=C(C(C)(C)C)c1ccccc1 
 
>  <mulliken_charges> 
26 
1   -0.458563 
2   -0.459238 
3   -0.427326 
4   -0.119295 
5   -0.130382 
6   -0.137514 
7   -0.154777 
8   -0.182717 
9   0.071957 
10   0.405764 
11   -0.00269 
12   -0.463275 
13   0.14868 
14   0.15528 
15   0.149172 
16   0.149458 
17   0.149684 
18   0.156694 
19   0.129238 
20   0.155098 
21   0.152882 
22   0.136669 
23   0.137261 
24   0.134527 
25   0.165809 
26   0.137604 
 
>  <lowdin_charges> 
26 
1   -0.443793 
2   -0.443153 
3   -0.436146 
4   -0.141507 
5   -0.154669 
6   -0.160279 
7   -0.128275 
8   -0.151268 
9   -0.049112 
10   0.161717 
11   -0.012879 
12   -0.23983 
13   0.152891 
14   0.156206 
15   0.151116 
16   0.152878 
17   0.151113 
18   0.156722 
19   0.142683 
20   0.157528 
21   0.15686 
22   0.162329 
23   0.159913 
24   0.160267 
25   0.178056 
26   0.16063 
 
$$$$ 
 
