PCCDB-ID:  7347 
public computational chemistry database (PCCDB) project, http://pccdb.org 
 
 23 22  0  0  0  0  0  0  0  0999 V2000 
    4.0476    0.2018   -0.1244 C   0  0  0  0  0  0  0  0  0  0  0  0 
    2.2883    0.6152   -1.8148 C   0  0  0  0  0  0  0  0  0  0  0  0 
    3.7645    2.9788    4.4183 C   0  0  0  0  0  0  0  0  0  0  0  0 
    5.3504    4.5219    3.2005 C   0  0  0  0  0  0  0  0  0  0  0  0 
    2.0017    1.5605    0.3829 C   0  0  0  0  0  0  0  0  0  0  0  0 
    3.8863    3.0439    1.9497 C   0  0  0  0  0  0  0  0  0  0  0  0 
    2.7456    0.7917   -0.4332 N   0  0  0  0  0  0  0  0  0  0  0  0 
    4.3169    3.4822    3.1572 N   0  0  0  0  0  0  0  0  0  0  0  0 
    0.5204    2.2071   -0.0035 S   0  0  0  0  0  0  0  0  0  0  0  0 
    4.4664    3.6127    0.4923 S   0  0  0  0  0  0  0  0  0  0  0  0 
    2.5883    1.7896    2.1034 S   0  0  0  0  0  0  0  0  0  0  0  0 
    4.0452   -0.8464   -0.4415 H   0  0  0  0  0  0  0  0  0  0  0  0 
    4.2405    0.2468    0.9448 H   0  0  0  0  0  0  0  0  0  0  0  0 
    4.8406    0.7424   -0.6513 H   0  0  0  0  0  0  0  0  0  0  0  0 
    1.2975    0.1522   -1.8299 H   0  0  0  0  0  0  0  0  0  0  0  0 
    3.0060   -0.0179   -2.3396 H   0  0  0  0  0  0  0  0  0  0  0  0 
    2.2152    1.5868   -2.3135 H   0  0  0  0  0  0  0  0  0  0  0  0 
    4.2759    3.4682    5.2470 H   0  0  0  0  0  0  0  0  0  0  0  0 
    3.9140    1.8969    4.5129 H   0  0  0  0  0  0  0  0  0  0  0  0 
    2.6921    3.1916    4.4945 H   0  0  0  0  0  0  0  0  0  0  0  0 
    5.5636    4.7576    4.2442 H   0  0  0  0  0  0  0  0  0  0  0  0 
    5.0107    5.4225    2.6803 H   0  0  0  0  0  0  0  0  0  0  0  0 
    6.2634    4.1762    2.7063 H   0  0  0  0  0  0  0  0  0  0  0  0 
  1 13  1  0  0  0  0 
  2  7  1  0  0  0  0 
  3 20  1  0  0  0  0 
  3 19  1  0  0  0  0 
  3 18  1  0  0  0  0 
  4 21  1  0  0  0  0 
  5 11  1  0  0  0  0 
  6 11  1  0  0  0  0 
  6  8  1  0  0  0  0 
  7  1  1  0  0  0  0 
  7  5  1  0  0  0  0 
  8  4  1  0  0  0  0 
  8  3  1  0  0  0  0 
  9  5  2  0  0  0  0 
 10  6  2  0  0  0  0 
 12  1  1  0  0  0  0 
 14  1  1  0  0  0  0 
 15  2  1  0  0  0  0 
 16  2  1  0  0  0  0 
 17  2  1  0  0  0  0 
 22  4  1  0  0  0  0 
 23  4  1  0  0  0  0 
M  END 
>  <HBA> 
5 
 
>  <HBD> 
0 
 
>  <TPSA> 
95.96 
 
>  <cid> 
7347 
 
>  <dipole> 
5.18 
 
>  <excitation_energy_1> 
2.988 
 
>  <excitation_energy_2> 
3.562 
 
>  <excitation_energy_3> 
3.673 
 
>  <excitation_energy_4> 
3.958 
 
>  <homo_energy> 
-5.497 
 
>  <homo_lumo_gap> 
4.237 
 
>  <logP> 
1.413 
 
>  <lumo_energy> 
-1.26 
 
>  <melting_point> 
48.4 
 
>  <molecular_refractivity> 
59.92 
 
>  <oscillator_strength_1> 
0.0012 
 
>  <oscillator_strength_2> 
0.0005 
 
>  <oscillator_strength_3> 
0.0003 
 
>  <oscillator_strength_4> 
0.0363 
 
>  <open_babel_can_smiles> 
CN(C(=S)SC(=S)N(C)C)C 
 
>  <mulliken_charges> 
23 
1   -0.327297 
2   -0.320817 
3   -0.342719 
4   -0.310672 
5   -0.039983 
6   -0.026462 
7   -0.280828 
8   -0.334357 
9   -0.193018 
10   -0.235283 
11   0.182289 
12   0.164036 
13   0.198364 
14   0.194672 
15   0.197169 
16   0.15724 
17   0.204022 
18   0.172729 
19   0.190756 
20   0.204615 
21   0.152527 
22   0.200121 
23   0.192896 
 
>  <lowdin_charges> 
23 
1   -0.353087 
2   -0.34911 
3   -0.356746 
4   -0.346424 
5   -0.155135 
6   -0.162463 
7   -0.035434 
8   -0.067703 
9   -0.161427 
10   -0.217594 
11   0.174285 
12   0.155811 
13   0.176067 
14   0.172522 
15   0.176035 
16   0.159716 
17   0.179405 
18   0.168926 
19   0.166226 
20   0.173327 
21   0.154145 
22   0.176039 
23   0.172619 
 
$$$$ 
 
