PCCDB-ID:  66053 
public computational chemistry database (PCCDB) project, http://pccdb.org 
 
 18 17  0  0  0  0  0  0  0  0999 V2000 
    4.1405    1.5761    0.0665 C   0  0  0  0  0  0  0  0  0  0  0  0 
    2.5187    0.1073    1.0441 C   0  0  0  0  0  0  0  0  0  0  0  0 
    4.7365   -0.6953   -1.9077 C   0  0  0  0  0  0  0  0  0  0  0  0 
    3.4542   -0.4367   -1.1094 C   0  0  0  0  0  0  0  0  0  0  0  0 
    4.4102   -1.4558   -3.1201 N   0  0  0  0  0  0  0  0  0  0  0  0 
    3.6945    0.1936    0.1884 N   0  0  0  0  0  0  0  0  0  0  0  0 
    4.3266    1.9882    1.0643 H   0  0  0  0  0  0  0  0  0  0  0  0 
    3.4005    2.2277   -0.4408 H   0  0  0  0  0  0  0  0  0  0  0  0 
    5.0783    1.6301   -0.4938 H   0  0  0  0  0  0  0  0  0  0  0  0 
    2.7484    0.5299    2.0287 H   0  0  0  0  0  0  0  0  0  0  0  0 
    2.2362   -0.9420    1.1826 H   0  0  0  0  0  0  0  0  0  0  0  0 
    1.6392    0.6482    0.6402 H   0  0  0  0  0  0  0  0  0  0  0  0 
    5.4679   -1.1825   -1.2397 H   0  0  0  0  0  0  0  0  0  0  0  0 
    5.1810    0.2533   -2.2298 H   0  0  0  0  0  0  0  0  0  0  0  0 
    2.9739   -1.4061   -0.9180 H   0  0  0  0  0  0  0  0  0  0  0  0 
    2.7511    0.1434   -1.7384 H   0  0  0  0  0  0  0  0  0  0  0  0 
    4.1575   -2.4103   -2.8660 H   0  0  0  0  0  0  0  0  0  0  0  0 
    5.2367   -1.5344   -3.7098 H   0  0  0  0  0  0  0  0  0  0  0  0 
  1  6  1  0  0  0  0 
  1  7  1  0  0  0  0 
  2 11  1  0  0  0  0 
  2 10  1  0  0  0  0 
  3 13  1  0  0  0  0 
  3  4  1  0  0  0  0 
  4 15  1  0  0  0  0 
  4  6  1  0  0  0  0 
  5 17  1  0  0  0  0 
  5  3  1  0  0  0  0 
  6  2  1  0  0  0  0 
  8  1  1  0  0  0  0 
  9  1  1  0  0  0  0 
 12  2  1  0  0  0  0 
 14  3  1  0  0  0  0 
 16  4  1  0  0  0  0 
 18  5  1  0  0  0  0 
M  END 
>  <HBA> 
2 
 
>  <HBD> 
1 
 
>  <TPSA> 
29.26 
 
>  <cid> 
66053 
 
>  <dipole> 
0.82 
 
>  <excitation_energy_1> 
5.25 
 
>  <excitation_energy_2> 
5.514 
 
>  <excitation_energy_3> 
5.642 
 
>  <excitation_energy_4> 
5.747 
 
>  <homo_energy> 
-5.633 
 
>  <homo_lumo_gap> 
7.891 
 
>  <logP> 
0.207 
 
>  <lumo_energy> 
2.259 
 
>  <melting_point> 
31.65 
 
>  <molecular_refractivity> 
26.95 
 
>  <oscillator_strength_1> 
0.0042 
 
>  <oscillator_strength_2> 
0.0286 
 
>  <oscillator_strength_3> 
0.0077 
 
>  <oscillator_strength_4> 
0.0029 
 
>  <open_babel_can_smiles> 
NCCN(C)C 
 
>  <mulliken_charges> 
18 
1   -0.299894 
2   -0.292014 
3   -0.147555 
4   -0.098484 
5   -0.720312 
6   -0.370923 
7   0.146682 
8   0.117505 
9   0.151485 
10   0.145427 
11   0.146621 
12   0.117157 
13   0.126257 
14   0.139642 
15   0.125033 
16   0.123497 
17   0.292527 
18   0.297349 
 
>  <lowdin_charges> 
18 
1   -0.359001 
2   -0.354032 
3   -0.213126 
4   -0.204956 
5   -0.556155 
6   -0.185235 
7   0.149249 
8   0.121556 
9   0.149649 
10   0.147469 
11   0.147098 
12   0.120243 
13   0.125495 
14   0.141356 
15   0.139066 
16   0.125645 
17   0.249832 
18   0.255846 
 
$$$$ 
 
