PCCDB-ID:  10812 
public computational chemistry database (PCCDB) project, http://pccdb.org 
 
 24 24  0  0  0  0  0  0  0  0999 V2000 
    3.7963    0.6922    0.4820 C   0  0  0  0  0  0  0  0  0  0  0  0 
    1.5328    0.8990   -0.6506 C   0  0  0  0  0  0  0  0  0  0  0  0 
    4.3298   -2.3840   -4.0089 C   0  0  0  0  0  0  0  0  0  0  0  0 
    2.6727   -3.7410   -0.8504 C   0  0  0  0  0  0  0  0  0  0  0  0 
    3.2792   -3.6863   -2.1045 C   0  0  0  0  0  0  0  0  0  0  0  0 
    2.4215   -2.5668   -0.1399 C   0  0  0  0  0  0  0  0  0  0  0  0 
    3.3787   -1.2883   -1.9360 C   0  0  0  0  0  0  0  0  0  0  0  0 
    2.4942   -0.0389    0.1034 C   0  0  0  0  0  0  0  0  0  0  0  0 
    3.6436   -2.4546   -2.6634 C   0  0  0  0  0  0  0  0  0  0  0  0 
    2.7700   -1.3202   -0.6739 C   0  0  0  0  0  0  0  0  0  0  0  0 
    3.5799    1.5806    1.0876 H   0  0  0  0  0  0  0  0  0  0  0  0 
    4.3410    1.0219   -0.4108 H   0  0  0  0  0  0  0  0  0  0  0  0 
    4.4630    0.0408    1.0575 H   0  0  0  0  0  0  0  0  0  0  0  0 
    1.3081    1.7878   -0.0487 H   0  0  0  0  0  0  0  0  0  0  0  0 
    0.5878    0.3950   -0.8812 H   0  0  0  0  0  0  0  0  0  0  0  0 
    1.9683    1.2400   -1.5973 H   0  0  0  0  0  0  0  0  0  0  0  0 
    4.1213   -3.2737   -4.6123 H   0  0  0  0  0  0  0  0  0  0  0  0 
    5.4203   -2.3138   -3.8975 H   0  0  0  0  0  0  0  0  0  0  0  0 
    4.0072   -1.5058   -4.5793 H   0  0  0  0  0  0  0  0  0  0  0  0 
    2.3912   -4.7016   -0.4259 H   0  0  0  0  0  0  0  0  0  0  0  0 
    3.4705   -4.6042   -2.6560 H   0  0  0  0  0  0  0  0  0  0  0  0 
    1.9467   -2.6169    0.8377 H   0  0  0  0  0  0  0  0  0  0  0  0 
    3.6554   -0.3295   -2.3710 H   0  0  0  0  0  0  0  0  0  0  0  0 
    1.9984   -0.3312    1.0394 H   0  0  0  0  0  0  0  0  0  0  0  0 
  1 13  1  0  0  0  0 
  1 11  1  0  0  0  0 
  2 14  1  0  0  0  0 
  2  8  1  0  0  0  0 
  3 18  1  0  0  0  0 
  3  9  1  0  0  0  0 
  4 20  1  0  0  0  0 
  4  6  2  0  0  0  0 
  5  4  1  0  0  0  0 
  6 22  1  0  0  0  0 
  7 10  2  0  0  0  0 
  8  1  1  0  0  0  0 
  8 24  1  0  0  0  0 
  9  5  2  0  0  0  0 
  9  7  1  0  0  0  0 
 10  6  1  0  0  0  0 
 10  8  1  0  0  0  0 
 12  1  1  0  0  0  0 
 15  2  1  0  0  0  0 
 16  2  1  0  0  0  0 
 17  3  1  0  0  0  0 
 19  3  1  0  0  0  0 
 21  5  1  0  0  0  0 
 23  7  1  0  0  0  0 
M  END 
>  <HBA> 
0 
 
>  <HBD> 
0 
 
>  <TPSA> 
0.0 
 
>  <cid> 
10812 
 
>  <dipole> 
0.27 
 
>  <excitation_energy_1> 
5.206 
 
>  <excitation_energy_2> 
5.815 
 
>  <excitation_energy_3> 
5.893 
 
>  <excitation_energy_4> 
6.042 
 
>  <homo_energy> 
-6.275 
 
>  <homo_lumo_gap> 
6.425 
 
>  <logP> 
3.118 
 
>  <lumo_energy> 
0.15 
 
>  <melting_point> 
10.66 
 
>  <molecular_refractivity> 
45.99 
 
>  <oscillator_strength_1> 
0.0032 
 
>  <oscillator_strength_2> 
0.008 
 
>  <oscillator_strength_3> 
0.0037 
 
>  <oscillator_strength_4> 
0.0002 
 
>  <open_babel_can_smiles> 
Cc1cccc(c1)C(C)C 
 
>  <mulliken_charges> 
24 
1   -0.437604 
2   -0.438685 
3   -0.528798 
4   -0.122797 
5   -0.184492 
6   -0.201862 
7   -0.240593 
8   -0.159046 
9   0.180253 
10   0.192099 
11   0.139686 
12   0.1429 
13   0.148985 
14   0.139864 
15   0.149274 
16   0.142873 
17   0.15437 
18   0.163926 
19   0.156014 
20   0.124694 
21   0.117856 
22   0.119072 
23   0.11479 
24   0.127219 
 
>  <lowdin_charges> 
24 
1   -0.443864 
2   -0.442087 
3   -0.441932 
4   -0.1549 
5   -0.174805 
6   -0.175142 
7   -0.177365 
8   -0.118144 
9   0.003951 
10   0.001739 
11   0.147838 
12   0.147787 
13   0.153871 
14   0.148075 
15   0.152586 
16   0.147075 
17   0.156988 
18   0.15892 
19   0.158006 
20   0.155519 
21   0.152964 
22   0.151655 
23   0.149835 
24   0.141432 
 
$$$$ 
 
