PCCDB-ID:  45629 
public computational chemistry database (PCCDB) project, http://pccdb.org 
 
 19 18  0  0  0  0  0  0  0  0999 V2000 
    3.9821    1.2129   -0.7981 C   0  0  0  0  0  0  0  0  0  0  0  0 
    4.5836   -0.7896    1.1718 C   0  0  0  0  0  0  0  0  0  0  0  0 
    2.1655   -1.5389    1.1257 C   0  0  0  0  0  0  0  0  0  0  0  0 
    1.7894   -2.6745    0.1680 C   0  0  0  0  0  0  0  0  0  0  0  0 
    2.8879    0.2702   -0.3160 C   0  0  0  0  0  0  0  0  0  0  0  0 
    3.2288   -0.6533    0.6452 N   0  0  0  0  0  0  0  0  0  0  0  0 
    1.7447    0.3363   -0.7612 O   0  0  0  0  0  0  0  0  0  0  0  0 
    3.1270   -3.8967   -0.1755 S   0  0  0  0  0  0  0  0  0  0  0  0 
    4.8606    0.6722   -1.1681 H   0  0  0  0  0  0  0  0  0  0  0  0 
    4.3196    1.8791    0.0049 H   0  0  0  0  0  0  0  0  0  0  0  0 
    3.5649    1.8168   -1.6044 H   0  0  0  0  0  0  0  0  0  0  0  0 
    4.5453   -1.3492    2.1085 H   0  0  0  0  0  0  0  0  0  0  0  0 
    5.0245    0.1891    1.3837 H   0  0  0  0  0  0  0  0  0  0  0  0 
    5.2514   -1.3321    0.4899 H   0  0  0  0  0  0  0  0  0  0  0  0 
    2.4794   -1.9499    2.0891 H   0  0  0  0  0  0  0  0  0  0  0  0 
    1.2674   -0.9308    1.2810 H   0  0  0  0  0  0  0  0  0  0  0  0 
    1.4206   -2.2637   -0.7732 H   0  0  0  0  0  0  0  0  0  0  0  0 
    0.9812   -3.2630    0.6148 H   0  0  0  0  0  0  0  0  0  0  0  0 
    3.8504   -3.1146   -1.0050 H   0  0  0  0  0  0  0  0  0  0  0  0 
  1  5  1  0  0  0  0 
  1 10  1  0  0  0  0 
  2 13  1  0  0  0  0 
  2 12  1  0  0  0  0 
  3 16  1  0  0  0  0 
  3 15  1  0  0  0  0 
  4 18  1  0  0  0  0 
  4  3  1  0  0  0  0 
  5  6  1  0  0  0  0 
  6  3  1  0  0  0  0 
  6  2  1  0  0  0  0 
  7  5  2  0  0  0  0 
  8  4  1  0  0  0  0 
  9  1  1  0  0  0  0 
 11  1  1  0  0  0  0 
 14  2  1  0  0  0  0 
 17  4  1  0  0  0  0 
 19  8  1  0  0  0  0 
M  END 
>  <HBA> 
3 
 
>  <HBD> 
1 
 
>  <TPSA> 
59.11 
 
>  <cid> 
45629 
 
>  <dipole> 
3.04 
 
>  <excitation_energy_1> 
5.222 
 
>  <excitation_energy_2> 
5.512 
 
>  <excitation_energy_3> 
5.658 
 
>  <excitation_energy_4> 
5.836 
 
>  <homo_energy> 
-6.308 
 
>  <homo_lumo_gap> 
6.914 
 
>  <logP> 
0.395 
 
>  <lumo_energy> 
0.607 
 
>  <melting_point> 
18.39 
 
>  <molecular_refractivity> 
37.17 
 
>  <oscillator_strength_1> 
0.0185 
 
>  <oscillator_strength_2> 
0.0049 
 
>  <oscillator_strength_3> 
0.0109 
 
>  <oscillator_strength_4> 
0.0106 
 
>  <open_babel_can_smiles> 
CN(C(=O)C)CCS 
 
>  <mulliken_charges> 
19 
1   -0.544723 
2   -0.307846 
3   -0.120505 
4   -0.419047 
5   0.571829 
6   -0.404328 
7   -0.513745 
8   -0.093424 
9   0.164618 
10   0.171226 
11   0.188452 
12   0.171167 
13   0.161863 
14   0.16061 
15   0.149575 
16   0.177974 
17   0.213311 
18   0.17814 
19   0.094853 
 
>  <lowdin_charges> 
19 
1   -0.474619 
2   -0.351276 
3   -0.198135 
4   -0.381243 
5   0.158391 
6   -0.114018 
7   -0.318019 
8   -0.096555 
9   0.165804 
10   0.169096 
11   0.180238 
12   0.165619 
13   0.155964 
14   0.150837 
15   0.15213 
16   0.168021 
17   0.180477 
18   0.172404 
19   0.114885 
 
$$$$ 
 
