PCCDB-ID:  57312 
public computational chemistry database (PCCDB) project, http://pccdb.org 
 
 29 30  0  0  0  0  0  0  0  0999 V2000 
    8.5632    1.7447    1.0588 C   0  0  0  0  0  0  0  0  0  0  0  0 
    6.2355    1.6556    2.1974 C   0  0  0  0  0  0  0  0  0  0  0  0 
    2.4078    2.4994    0.7182 C   0  0  0  0  0  0  0  0  0  0  0  0 
    1.3801    2.2224    1.6372 C   0  0  0  0  0  0  0  0  0  0  0  0 
    1.2784    1.2159   -1.0227 C   0  0  0  0  0  0  0  0  0  0  0  0 
   -1.6157    0.3853    0.9200 C   0  0  0  0  0  0  0  0  0  0  0  0 
    7.0655    1.8478    0.9555 C   0  0  0  0  0  0  0  0  0  0  0  0 
    2.3766    2.0020   -0.5957 C   0  0  0  0  0  0  0  0  0  0  0  0 
    0.3320    1.4391    1.1998 C   0  0  0  0  0  0  0  0  0  0  0  0 
    0.2882    0.9496   -0.1029 C   0  0  0  0  0  0  0  0  0  0  0  0 
    4.5895    2.3889   -1.3778 C   0  0  0  0  0  0  0  0  0  0  0  0 
    3.3362    2.3002   -1.5800 N   0  0  0  0  0  0  0  0  0  0  0  0 
    6.6198    2.1132   -0.2174 N   0  0  0  0  0  0  0  0  0  0  0  0 
    5.4292    2.6947   -2.3802 O   0  0  0  0  0  0  0  0  0  0  0  0 
   -0.7719    0.9969    1.8995 O   0  0  0  0  0  0  0  0  0  0  0  0 
   -0.8461    0.1861   -0.2704 O   0  0  0  0  0  0  0  0  0  0  0  0 
    5.1844    2.1959   -0.1782 O   0  0  0  0  0  0  0  0  0  0  0  0 
    8.8527    0.7390    1.3886 H   0  0  0  0  0  0  0  0  0  0  0  0 
    8.9429    2.4520    1.8071 H   0  0  0  0  0  0  0  0  0  0  0  0 
    9.0342    1.9552    0.0964 H   0  0  0  0  0  0  0  0  0  0  0  0 
    6.7827    1.0657    2.9383 H   0  0  0  0  0  0  0  0  0  0  0  0 
    5.2832    1.1717    1.9702 H   0  0  0  0  0  0  0  0  0  0  0  0 
    6.0077    2.6305    2.6480 H   0  0  0  0  0  0  0  0  0  0  0  0 
    3.2348    3.1274    1.0270 H   0  0  0  0  0  0  0  0  0  0  0  0 
    1.4084    2.6120    2.6494 H   0  0  0  0  0  0  0  0  0  0  0  0 
    1.2374    0.8448   -2.0400 H   0  0  0  0  0  0  0  0  0  0  0  0 
   -2.4648    1.0494    0.6994 H   0  0  0  0  0  0  0  0  0  0  0  0 
   -1.9644   -0.5818    1.2930 H   0  0  0  0  0  0  0  0  0  0  0  0 
    4.8481    2.7932   -3.1558 H   0  0  0  0  0  0  0  0  0  0  0  0 
  1 18  1  0  0  0  0 
  1 19  1  0  0  0  0 
  2 23  1  0  0  0  0 
  2 21  1  0  0  0  0 
  3 24  1  0  0  0  0 
  3  4  2  0  0  0  0 
  4 25  1  0  0  0  0 
  5  8  2  0  0  0  0 
  5 10  1  0  0  0  0 
  6 28  1  0  0  0  0 
  6 15  1  0  0  0  0 
  7  1  1  0  0  0  0 
  7  2  1  0  0  0  0 
  8  3  1  0  0  0  0 
  9  4  1  0  0  0  0 
  9 15  1  0  0  0  0 
 10  9  2  0  0  0  0 
 11 17  1  0  0  0  0 
 12 11  2  0  0  0  0 
 12  8  1  0  0  0  0 
 13 17  1  0  0  0  0 
 13  7  1  0  0  0  0 
 14 11  1  0  0  0  0 
 16 10  1  0  0  0  0 
 16  6  1  0  0  0  0 
 20  1  1  0  0  0  0 
 22  2  1  0  0  0  0 
 26  5  1  0  0  0  0 
 27  6  1  0  0  0  0 
 29 14  1  0  0  0  0 
M  RAD  2   7   2  13   2 
M  END 
>  <HBA> 
6 
 
>  <HBD> 
1 
 
>  <TPSA> 
69.15 
 
>  <cid> 
57312 
 
>  <dipole> 
2.65 
 
>  <excitation_energy_1> 
4.192 
 
>  <excitation_energy_2> 
4.507 
 
>  <excitation_energy_3> 
4.713 
 
>  <excitation_energy_4> 
4.842 
 
>  <homo_energy> 
-5.075 
 
>  <homo_lumo_gap> 
4.74 
 
>  <logP> 
2.433 
 
>  <lumo_energy> 
-0.335 
 
>  <melting_point> 
114.32 
 
>  <molecular_refractivity> 
61.59 
 
>  <oscillator_strength_1> 
0.1169 
 
>  <oscillator_strength_2> 
0.0585 
 
>  <oscillator_strength_3> 
0.0282 
 
>  <oscillator_strength_4> 
0.1081 
 
>  <open_babel_can_smiles> 
C[C]([N]O/C(=N\c1ccc2c(c1)OCO2)/O)C 
 
>  <mulliken_charges> 
29 
1   -0.510637 
2   -0.512006 
3   -0.171946 
4   -0.198027 
5   -0.221711 
6   0.192811 
7   0.33301 
8   0.264845 
9   0.327264 
10   0.334977 
11   0.758156 
12   -0.589425 
13   -0.17046 
14   -0.566702 
15   -0.534821 
16   -0.535298 
17   -0.420792 
18   0.169559 
19   0.168669 
20   0.188291 
21   0.161835 
22   0.203234 
23   0.182785 
24   0.13322 
25   0.138089 
26   0.141964 
27   0.148797 
28   0.161361 
29   0.422957 
 
>  <lowdin_charges> 
29 
1   -0.440384 
2   -0.460933 
3   -0.194717 
4   -0.182093 
5   -0.19296 
6   0.015262 
7   0.050731 
8   0.049351 
9   0.058773 
10   0.073191 
11   0.200907 
12   -0.242685 
13   -0.043464 
14   -0.334259 
15   -0.211767 
16   -0.210118 
17   -0.136891 
18   0.166562 
19   0.167318 
20   0.17623 
21   0.165783 
22   0.183757 
23   0.177163 
24   0.162883 
25   0.165825 
26   0.172469 
27   0.138655 
28   0.152924 
29   0.372488 
 
$$$$ 
 
