PCCDB-ID:  70499 
public computational chemistry database (PCCDB) project, http://pccdb.org 
 
 27 27  0  0  0  0  0  0  0  0999 V2000 
    6.4842    0.4941    1.4736 C   0  0  0  0  0  0  0  0  0  0  0  0 
    5.9265    0.5679    0.0490 C   0  0  0  0  0  0  0  0  0  0  0  0 
    4.4863    1.0927   -0.0065 C   0  0  0  0  0  0  0  0  0  0  0  0 
    3.9200    1.1917   -1.4294 C   0  0  0  0  0  0  0  0  0  0  0  0 
    4.4055    3.5199   -1.9874 C   0  0  0  0  0  0  0  0  0  0  0  0 
    4.4022    1.8649   -3.7162 C   0  0  0  0  0  0  0  0  0  0  0  0 
    5.2592    4.4138   -2.8847 C   0  0  0  0  0  0  0  0  0  0  0  0 
    5.2595    2.7953   -4.5713 C   0  0  0  0  0  0  0  0  0  0  0  0 
    4.6593    2.1121   -2.2968 N   0  0  0  0  0  0  0  0  0  0  0  0 
    5.0106    4.1595   -4.2603 O   0  0  0  0  0  0  0  0  0  0  0  0 
    7.5126    0.1149    1.4811 H   0  0  0  0  0  0  0  0  0  0  0  0 
    5.8805   -0.1694    2.1055 H   0  0  0  0  0  0  0  0  0  0  0  0 
    6.4918    1.4832    1.9487 H   0  0  0  0  0  0  0  0  0  0  0  0 
    5.9611   -0.4308   -0.4103 H   0  0  0  0  0  0  0  0  0  0  0  0 
    6.5615    1.2098   -0.5726 H   0  0  0  0  0  0  0  0  0  0  0  0 
    4.4314    2.0696    0.4938 H   0  0  0  0  0  0  0  0  0  0  0  0 
    3.8267    0.4281    0.5695 H   0  0  0  0  0  0  0  0  0  0  0  0 
    2.8452    1.4598   -1.3848 H   0  0  0  0  0  0  0  0  0  0  0  0 
    3.9724    0.1979   -1.8930 H   0  0  0  0  0  0  0  0  0  0  0  0 
    3.3366    3.7797   -2.1287 H   0  0  0  0  0  0  0  0  0  0  0  0 
    4.6585    3.7176   -0.9402 H   0  0  0  0  0  0  0  0  0  0  0  0 
    4.6534    0.8221   -3.9462 H   0  0  0  0  0  0  0  0  0  0  0  0 
    3.3357    2.0192   -3.9768 H   0  0  0  0  0  0  0  0  0  0  0  0 
    6.3253    4.2506   -2.6551 H   0  0  0  0  0  0  0  0  0  0  0  0 
    5.0208    5.4687   -2.7173 H   0  0  0  0  0  0  0  0  0  0  0  0 
    5.0244    2.6721   -5.6329 H   0  0  0  0  0  0  0  0  0  0  0  0 
    6.3249    2.5586   -4.4139 H   0  0  0  0  0  0  0  0  0  0  0  0 
  1 11  1  0  0  0  0 
  1 13  1  0  0  0  0 
  1 12  1  0  0  0  0 
  2  1  1  0  0  0  0 
  3  2  1  0  0  0  0 
  3 16  1  0  0  0  0 
  3 17  1  0  0  0  0 
  4 18  1  0  0  0  0 
  4  3  1  0  0  0  0 
  5 21  1  0  0  0  0 
  6  9  1  0  0  0  0 
  7 25  1  0  0  0  0 
  7 24  1  0  0  0  0 
  7  5  1  0  0  0  0 
  8 27  1  0  0  0  0 
  8 10  1  0  0  0  0 
  8  6  1  0  0  0  0 
  9  5  1  0  0  0  0 
  9  4  1  0  0  0  0 
 10  7  1  0  0  0  0 
 14  2  1  0  0  0  0 
 15  2  1  0  0  0  0 
 19  4  1  0  0  0  0 
 20  5  1  0  0  0  0 
 22  6  1  0  0  0  0 
 23  6  1  0  0  0  0 
 26  8  1  0  0  0  0 
M  END 
>  <HBA> 
2 
 
>  <HBD> 
0 
 
>  <TPSA> 
12.47 
 
>  <cid> 
70499 
 
>  <dipole> 
1.24 
 
>  <excitation_energy_1> 
5.495 
 
>  <excitation_energy_2> 
5.723 
 
>  <excitation_energy_3> 
5.778 
 
>  <excitation_energy_4> 
5.978 
 
>  <homo_energy> 
-5.821 
 
>  <homo_lumo_gap> 
8.115 
 
>  <logP> 
1.057 
 
>  <lumo_energy> 
2.294 
 
>  <melting_point> 
-11.63 
 
>  <molecular_refractivity> 
46.35 
 
>  <oscillator_strength_1> 
0.0167 
 
>  <oscillator_strength_2> 
0.041 
 
>  <oscillator_strength_3> 
0.0505 
 
>  <oscillator_strength_4> 
0.0472 
 
>  <open_babel_can_smiles> 
CCCCN1CCOCC1 
 
>  <mulliken_charges> 
27 
1   -0.442142 
2   -0.240737 
3   -0.262562 
4   -0.11164 
5   -0.136348 
6   -0.130477 
7   -0.03247 
8   -0.033137 
9   -0.396347 
10   -0.467523 
11   0.141839 
12   0.139011 
13   0.139038 
14   0.124786 
15   0.149828 
16   0.131737 
17   0.129514 
18   0.111123 
19   0.131373 
20   0.117622 
21   0.141513 
22   0.137727 
23   0.117857 
24   0.126982 
25   0.143256 
26   0.143022 
27   0.127153 
 
>  <lowdin_charges> 
27 
1   -0.444653 
2   -0.275179 
3   -0.282728 
4   -0.196134 
5   -0.214014 
6   -0.212206 
7   -0.13333 
8   -0.133585 
9   -0.192511 
10   -0.27484 
11   0.148268 
12   0.146032 
13   0.144529 
14   0.136517 
15   0.149679 
16   0.138228 
17   0.144686 
18   0.117822 
19   0.141775 
20   0.119601 
21   0.148574 
22   0.147126 
23   0.11979 
24   0.129079 
25   0.149221 
26   0.148987 
27   0.129265 
 
$$$$ 
 
