PCCDB-ID:  73267 
public computational chemistry database (PCCDB) project, http://pccdb.org 
 
 18 18  0  0  0  0  0  0  0  0999 V2000 
    1.0451   -0.5254   -0.0386 C   0  0  0  0  0  0  0  0  0  0  0  0 
    2.5217   -0.0898   -0.1147 C   0  0  0  0  0  0  0  0  0  0  0  0 
    3.1954    1.4199   -2.0506 C   0  0  0  0  0  0  0  0  0  0  0  0 
    3.0175    0.1463   -1.5227 C   0  0  0  0  0  0  0  0  0  0  0  0 
    3.3166   -0.8989   -2.4292 C   0  0  0  0  0  0  0  0  0  0  0  0 
    3.8372    0.5798   -4.0423 C   0  0  0  0  0  0  0  0  0  0  0  0 
    3.6023    1.6685   -3.3024 N   0  0  0  0  0  0  0  0  0  0  0  0 
    3.7217   -0.6943   -3.6742 N   0  0  0  0  0  0  0  0  0  0  0  0 
    3.2161   -2.2034   -2.0861 O   0  0  0  0  0  0  0  0  0  0  0  0 
    4.2412    0.7803   -5.3091 O   0  0  0  0  0  0  0  0  0  0  0  0 
    0.7385   -0.6878    1.0006 H   0  0  0  0  0  0  0  0  0  0  0  0 
    0.8642   -1.4542   -0.5927 H   0  0  0  0  0  0  0  0  0  0  0  0 
    0.3947    0.2413   -0.4722 H   0  0  0  0  0  0  0  0  0  0  0  0 
    3.1530   -0.8357    0.3942 H   0  0  0  0  0  0  0  0  0  0  0  0 
    2.6527    0.8336    0.4618 H   0  0  0  0  0  0  0  0  0  0  0  0 
    3.0012    2.2946   -1.4299 H   0  0  0  0  0  0  0  0  0  0  0  0 
    2.9496   -2.2716   -1.1562 H   0  0  0  0  0  0  0  0  0  0  0  0 
    4.2776    1.7463   -5.4245 H   0  0  0  0  0  0  0  0  0  0  0  0 
  1 11  1  0  0  0  0 
  2  1  1  0  0  0  0 
  2 14  1  0  0  0  0 
  2 15  1  0  0  0  0 
  3  4  2  0  0  0  0 
  3 16  1  0  0  0  0 
  4  2  1  0  0  0  0 
  5  9  1  0  0  0  0 
  5  4  1  0  0  0  0 
  6  8  2  0  0  0  0 
  6  7  2  0  0  0  0 
  7  3  1  0  0  0  0 
  8  5  2  0  0  0  0 
  9 17  1  0  0  0  0 
 10  6  1  0  0  0  0 
 12  1  1  0  0  0  0 
 13  1  1  0  0  0  0 
 18 10  1  0  0  0  0 
M  END 
>  <HBA> 
2 
 
>  <HBD> 
2 
 
>  <TPSA> 
65.72 
 
>  <cid> 
73267 
 
>  <dipole> 
4.33 
 
>  <excitation_energy_1> 
4.935 
 
>  <excitation_energy_2> 
5.151 
 
>  <excitation_energy_3> 
5.568 
 
>  <excitation_energy_4> 
5.658 
 
>  <homo_energy> 
-6.582 
 
>  <homo_lumo_gap> 
5.886 
 
>  <logP> 
-0.374 
 
>  <lumo_energy> 
-0.697 
 
>  <melting_point> 
171.92 
 
>  <molecular_refractivity> 
37.46 
 
>  <oscillator_strength_1> 
0.0046 
 
>  <oscillator_strength_2> 
0.0789 
 
>  <oscillator_strength_3> 
0.0006 
 
>  <oscillator_strength_4> 
0.0552 
 
>  <open_babel_can_smiles> 
CCC1=CN=[C](=[N]=C1O)O 
 
>  <mulliken_charges> 
18 
1   -0.440997 
2   -0.387541 
3   0.001673 
4   0.117828 
5   0.45099 
6   0.631435 
7   -0.48484 
8   -0.471701 
9   -0.589666 
10   -0.5823 
11   0.155237 
12   0.147242 
13   0.163353 
14   0.143104 
15   0.162551 
16   0.145623 
17   0.420791 
18   0.417218 
 
>  <lowdin_charges> 
18 
1   -0.447075 
2   -0.27915 
3   -0.066263 
4   -0.10574 
5   0.152623 
6   0.160919 
7   -0.222692 
8   -0.171613 
9   -0.337647 
10   -0.335157 
11   0.154549 
12   0.147864 
13   0.160058 
14   0.14501 
15   0.161035 
16   0.160118 
17   0.36047 
18   0.362692 
 
$$$$ 
 
