PCCDB-ID:  11966 
public computational chemistry database (PCCDB) project, http://pccdb.org 
 
 28 28  0  0  0  0  0  0  0  0999 V2000 
    7.7255    0.2355    1.2711 C   0  0  0  0  0  0  0  0  0  0  0  0 
    8.7604   -1.9022    0.3999 C   0  0  0  0  0  0  0  0  0  0  0  0 
    7.7106   -1.8634    2.7052 C   0  0  0  0  0  0  0  0  0  0  0  0 
    0.8134    0.6121    2.2848 C   0  0  0  0  0  0  0  0  0  0  0  0 
    1.6048   -0.3614    2.8989 C   0  0  0  0  0  0  0  0  0  0  0  0 
    1.2442    1.2212    1.1033 C   0  0  0  0  0  0  0  0  0  0  0  0 
    2.8280   -0.7260    2.3389 C   0  0  0  0  0  0  0  0  0  0  0  0 
    2.4636    0.8585    0.5376 C   0  0  0  0  0  0  0  0  0  0  0  0 
    3.2627   -0.1146    1.1535 C   0  0  0  0  0  0  0  0  0  0  0  0 
    4.5571   -0.4507    0.4875 C   0  0  0  0  0  0  0  0  0  0  0  0 
    7.6634   -1.2942    1.2834 C   0  0  0  0  0  0  0  0  0  0  0  0 
    4.9155   -0.0362   -0.5875 O   0  0  0  0  0  0  0  0  0  0  0  0 
    5.2911   -1.2925    1.2888 O   0  0  0  0  0  0  0  0  0  0  0  0 
    6.4723   -1.7698    0.5951 O   0  0  0  0  0  0  0  0  0  0  0  0 
    8.6866    0.5749    1.6729 H   0  0  0  0  0  0  0  0  0  0  0  0 
    6.9337    0.6666    1.8915 H   0  0  0  0  0  0  0  0  0  0  0  0 
    7.6132    0.6134    0.2514 H   0  0  0  0  0  0  0  0  0  0  0  0 
    9.7435   -1.6480    0.8095 H   0  0  0  0  0  0  0  0  0  0  0  0 
    8.6949   -1.5129   -0.6204 H   0  0  0  0  0  0  0  0  0  0  0  0 
    8.6703   -2.9925    0.3645 H   0  0  0  0  0  0  0  0  0  0  0  0 
    8.6527   -1.5901    3.1934 H   0  0  0  0  0  0  0  0  0  0  0  0 
    7.6357   -2.9555    2.6821 H   0  0  0  0  0  0  0  0  0  0  0  0 
    6.8877   -1.4720    3.3102 H   0  0  0  0  0  0  0  0  0  0  0  0 
   -0.1391    0.8942    2.7255 H   0  0  0  0  0  0  0  0  0  0  0  0 
    1.2680   -0.8389    3.8149 H   0  0  0  0  0  0  0  0  0  0  0  0 
    0.6285    1.9766    0.6231 H   0  0  0  0  0  0  0  0  0  0  0  0 
    3.4403   -1.4862    2.8107 H   0  0  0  0  0  0  0  0  0  0  0  0 
    2.8153    1.3137   -0.3824 H   0  0  0  0  0  0  0  0  0  0  0  0 
  1 11  1  0  0  0  0 
  1 15  1  0  0  0  0 
  1 16  1  0  0  0  0 
  2 18  1  0  0  0  0 
  2 11  1  0  0  0  0 
  3 21  1  0  0  0  0 
  3 23  1  0  0  0  0 
  4 24  1  0  0  0  0 
  4  5  2  0  0  0  0 
  5 25  1  0  0  0  0 
  6  4  1  0  0  0  0 
  7 27  1  0  0  0  0 
  7  5  1  0  0  0  0 
  8  6  2  0  0  0  0 
  8  9  1  0  0  0  0 
  9  7  2  0  0  0  0 
 10  9  1  0  0  0  0 
 10 13  1  0  0  0  0 
 11  3  1  0  0  0  0 
 12 10  2  0  0  0  0 
 14 11  1  0  0  0  0 
 14 13  1  0  0  0  0 
 17  1  1  0  0  0  0 
 19  2  1  0  0  0  0 
 20  2  1  0  0  0  0 
 22  3  1  0  0  0  0 
 26  6  1  0  0  0  0 
 28  8  1  0  0  0  0 
M  END 
>  <HBA> 
3 
 
>  <HBD> 
0 
 
>  <TPSA> 
35.53 
 
>  <cid> 
11966 
 
>  <dipole> 
2.68 
 
>  <excitation_energy_1> 
4.813 
 
>  <excitation_energy_2> 
4.928 
 
>  <excitation_energy_3> 
5.188 
 
>  <excitation_energy_4> 
5.445 
 
>  <homo_energy> 
-7.089 
 
>  <homo_lumo_gap> 
5.804 
 
>  <logP> 
2.574 
 
>  <lumo_energy> 
-1.284 
 
>  <melting_point> 
34.03 
 
>  <molecular_refractivity> 
53.27 
 
>  <oscillator_strength_1> 
0.0003 
 
>  <oscillator_strength_2> 
0.0165 
 
>  <oscillator_strength_3> 
0.093 
 
>  <oscillator_strength_4> 
0.2019 
 
>  <open_babel_can_smiles> 
O=C(c1ccccc1)OOC(C)(C)C 
 
>  <mulliken_charges> 
28 
1   -0.462466 
2   -0.464609 
3   -0.450714 
4   -0.116483 
5   -0.136276 
6   -0.137676 
7   -0.159832 
8   -0.150541 
9   0.037709 
10   0.630786 
11   0.316652 
12   -0.464992 
13   -0.321799 
14   -0.272605 
15   0.142616 
16   0.152529 
17   0.175044 
18   0.152162 
19   0.169623 
20   0.161184 
21   0.143234 
22   0.153996 
23   0.159445 
24   0.138725 
25   0.138455 
26   0.140009 
27   0.159944 
28   0.165881 
 
>  <lowdin_charges> 
28 
1   -0.456936 
2   -0.441415 
3   -0.454022 
4   -0.138693 
5   -0.155963 
6   -0.1558 
7   -0.142874 
8   -0.128967 
9   -0.046541 
10   0.190358 
11   0.126773 
12   -0.239198 
13   -0.096377 
14   -0.130074 
15   0.15465 
16   0.15714 
17   0.166841 
18   0.159297 
19   0.163779 
20   0.158542 
21   0.154404 
22   0.155394 
23   0.159534 
24   0.161895 
25   0.162162 
26   0.163961 
27   0.173818 
28   0.178309 
 
$$$$ 
 
