PCCDB-ID:  44917 
public computational chemistry database (PCCDB) project, http://pccdb.org 
 
 40 42  0  0  1  0  0  0  0  0999 V2000 
    1.0116    0.4261    2.0532 C   0  0  0  0  0  0  0  0  0  0  0  0 
    2.4627    0.1042    1.6834 C   0  0  0  0  0  0  0  0  0  0  0  0 
    3.1307    1.2109    0.8561 C   0  0  0  0  0  0  0  0  0  0  0  0 
    7.1786    3.7893   -1.6650 C   0  0  0  0  0  0  0  0  0  0  0  0 
    4.9551    3.7749   -2.8429 C   0  0  0  0  0  0  0  0  0  0  0  0 
    6.6169    1.9332   -3.2716 C   0  0  0  0  0  0  0  0  0  0  0  0 
    5.0636    3.3159   -0.3689 C   0  0  0  0  0  0  0  0  0  0  0  0 
    6.7195    1.4781   -0.7958 C   0  0  0  0  0  0  0  0  0  0  0  0 
    4.5113    1.4577   -1.9690 C   0  0  0  0  0  0  0  0  0  0  0  0 
    5.6806    4.1287   -1.5283 C   0  0  1  0  0  0  0  0  0  0  0  0 
    7.3385    2.2835   -1.9561 C   0  0  2  0  0  0  0  0  0  0  0  0 
    5.1196    2.2688   -3.1324 C   0  0  1  0  0  0  0  0  0  0  0  0 
    4.6131    0.9246    0.5401 C   0  0  1  0  0  0  0  0  0  0  0  0 
    5.2092    1.7943   -0.6236 C   0  0  2  0  0  0  0  0  0  0  0  0 
    5.3473    0.9710    1.8166 N   0  0  0  0  0  0  0  0  0  0  0  0 
    0.5591   -0.3847    2.6360 H   0  0  0  0  0  0  0  0  0  0  0  0 
    0.3927    0.5770    1.1593 H   0  0  0  0  0  0  0  0  0  0  0  0 
    0.9484    1.3416    2.6550 H   0  0  0  0  0  0  0  0  0  0  0  0 
    2.4936   -0.8361    1.1137 H   0  0  0  0  0  0  0  0  0  0  0  0 
    3.0559   -0.0649    2.5885 H   0  0  0  0  0  0  0  0  0  0  0  0 
    3.0615    2.1611    1.4068 H   0  0  0  0  0  0  0  0  0  0  0  0 
    2.5622    1.3558   -0.0705 H   0  0  0  0  0  0  0  0  0  0  0  0 
    7.7120    4.0540   -0.7411 H   0  0  0  0  0  0  0  0  0  0  0  0 
    7.6285    4.3822   -2.4733 H   0  0  0  0  0  0  0  0  0  0  0  0 
    5.3655    4.3673   -3.6725 H   0  0  0  0  0  0  0  0  0  0  0  0 
    3.8889    4.0305   -2.7662 H   0  0  0  0  0  0  0  0  0  0  0  0 
    6.7457    0.8662   -3.5013 H   0  0  0  0  0  0  0  0  0  0  0  0 
    7.0563    2.4955   -4.1072 H   0  0  0  0  0  0  0  0  0  0  0  0 
    4.0038    3.5818   -0.2609 H   0  0  0  0  0  0  0  0  0  0  0  0 
    5.5565    3.5894    0.5758 H   0  0  0  0  0  0  0  0  0  0  0  0 
    7.2595    1.7160    0.1299 H   0  0  0  0  0  0  0  0  0  0  0  0 
    6.8517    0.4000   -0.9740 H   0  0  0  0  0  0  0  0  0  0  0  0 
    4.6055    0.3808   -2.1722 H   0  0  0  0  0  0  0  0  0  0  0  0 
    3.4374    1.6733   -1.9086 H   0  0  0  0  0  0  0  0  0  0  0  0 
    5.5631    5.2007   -1.3198 H   0  0  0  0  0  0  0  0  0  0  0  0 
    8.4049    2.0342   -2.0402 H   0  0  0  0  0  0  0  0  0  0  0  0 
    4.5951    2.0128   -4.0629 H   0  0  0  0  0  0  0  0  0  0  0  0 
    4.6824   -0.1195    0.1968 H   0  0  0  0  0  0  0  0  0  0  0  0 
    5.4053    1.9320    2.1530 H   0  0  0  0  0  0  0  0  0  0  0  0 
    6.3038    0.6465    1.6970 H   0  0  0  0  0  0  0  0  0  0  0  0 
  1 16  1  0  0  0  0 
  1 18  1  0  0  0  0 
  2  1  1  0  0  0  0 
  2 20  1  0  0  0  0 
  3 21  1  0  0  0  0 
  3  2  1  0  0  0  0 
  4 10  1  0  0  0  0 
  4 23  1  0  0  0  0 
  5 26  1  0  0  0  0 
  5 10  1  0  0  0  0 
  6 12  1  0  0  0  0 
  6 11  1  0  0  0  0 
  7 29  1  0  0  0  0 
  7 30  1  0  0  0  0 
  8 14  1  0  0  0  0 
  8 31  1  0  0  0  0 
  9 34  1  0  0  0  0 
  9 14  1  0  0  0  0 
 10 35  1  1  0  0  0 
 10  7  1  0  0  0  0 
 11 36  1  6  0  0  0 
 11  4  1  0  0  0  0 
 11  8  1  0  0  0  0 
 12 37  1  6  0  0  0 
 12  5  1  0  0  0  0 
 12  9  1  0  0  0  0 
 13 38  1  6  0  0  0 
 13  3  1  0  0  0  0 
 13 15  1  0  0  0  0 
 14  7  1  0  0  0  0 
 14 13  1  1  0  0  0 
 15 39  1  0  0  0  0 
 17  1  1  0  0  0  0 
 19  2  1  0  0  0  0 
 22  3  1  0  0  0  0 
 24  4  1  0  0  0  0 
 25  5  1  0  0  0  0 
 27  6  1  0  0  0  0 
 28  6  1  0  0  0  0 
 32  8  1  0  0  0  0 
 33  9  1  0  0  0  0 
 40 15  1  0  0  0  0 
M  END 
>  <HBA> 
1 
 
>  <HBD> 
1 
 
>  <TPSA> 
26.02 
 
>  <cid> 
44917 
 
>  <dipole> 
1.44 
 
>  <excitation_energy_1> 
5.421 
 
>  <excitation_energy_2> 
5.935 
 
>  <excitation_energy_3> 
6.014 
 
>  <excitation_energy_4> 
6.186 
 
>  <homo_energy> 
-6.082 
 
>  <homo_lumo_gap> 
7.837 
 
>  <logP> 
4.03 
 
>  <lumo_energy> 
1.755 
 
>  <melting_point> 
108.79 
 
>  <molecular_refractivity> 
65.52 
 
>  <oscillator_strength_1> 
0.0202 
 
>  <oscillator_strength_2> 
0.0088 
 
>  <oscillator_strength_3> 
0.0061 
 
>  <oscillator_strength_4> 
0.0023 
 
>  <open_babel_can_smiles> 
CCC[C@@H]([C@]12C[C@H]3C[C@@H](C2)C[C@@H](C1)C3)N 
 
>  <mulliken_charges> 
40 
1   -0.443255 
2   -0.246317 
3   -0.25492 
4   -0.264228 
5   -0.264901 
6   -0.263048 
7   -0.285181 
8   -0.284988 
9   -0.282612 
10   -0.089626 
11   -0.088917 
12   -0.089798 
13   0.011981 
14   0.091489 
15   -0.722963 
16   0.139785 
17   0.135478 
18   0.13799 
19   0.121984 
20   0.160396 
21   0.122467 
22   0.129566 
23   0.122766 
24   0.125221 
25   0.124727 
26   0.124676 
27   0.124391 
28   0.124419 
29   0.132305 
30   0.111455 
31   0.111214 
32   0.121253 
33   0.122372 
34   0.130488 
35   0.114185 
36   0.11384 
37   0.114386 
38   0.118186 
39   0.292879 
40   0.300855 
 
>  <lowdin_charges> 
40 
1   -0.44669 
2   -0.273311 
3   -0.280774 
4   -0.282613 
5   -0.280538 
6   -0.280522 
7   -0.282441 
8   -0.283326 
9   -0.277519 
10   -0.127807 
11   -0.128425 
12   -0.130874 
13   -0.065853 
14   -0.015358 
15   -0.545446 
16   0.149217 
17   0.142829 
18   0.14431 
19   0.13526 
20   0.154292 
21   0.136365 
22   0.140177 
23   0.138312 
24   0.140844 
25   0.140421 
26   0.137467 
27   0.137495 
28   0.140199 
29   0.141079 
30   0.132231 
31   0.133366 
32   0.13538 
33   0.136373 
34   0.139123 
35   0.136327 
36   0.136374 
37   0.1386 
38   0.133908 
39   0.248467 
40   0.253084 
 
$$$$ 
 
