PCCDB-ID:  7139 
public computational chemistry database (PCCDB) project, http://pccdb.org 
 
 26 26  0  0  0  0  0  0  0  0999 V2000 
    3.5685   -1.3059    0.9660 C   0  0  0  0  0  0  0  0  0  0  0  0 
    0.7874    1.6615   -0.4597 C   0  0  0  0  0  0  0  0  0  0  0  0 
    5.7149    2.2694    0.2471 C   0  0  0  0  0  0  0  0  0  0  0  0 
    5.0342    1.0668    0.4523 C   0  0  0  0  0  0  0  0  0  0  0  0 
    3.6221    3.4468    0.2065 C   0  0  0  0  0  0  0  0  0  0  0  0 
    5.7579    4.7787   -0.1191 C   0  0  0  0  0  0  0  0  0  0  0  0 
    5.0257    3.4794    0.1299 C   0  0  0  0  0  0  0  0  0  0  0  0 
    3.6389    1.0449    0.5411 C   0  0  0  0  0  0  0  0  0  0  0  0 
    2.9243    2.2578    0.4057 C   0  0  0  0  0  0  0  0  0  0  0  0 
    5.9480    5.1780   -1.5944 C   0  0  0  0  0  0  0  0  0  0  0  0 
    6.7571    6.0008   -1.9427 O   0  0  0  0  0  0  0  0  0  0  0  0 
    5.1274    4.5842   -2.4925 O   0  0  0  0  0  0  0  0  0  0  0  0 
    2.8917   -0.0725    0.7677 O   0  0  0  0  0  0  0  0  0  0  0  0 
    1.5628    2.3171    0.5490 O   0  0  0  0  0  0  0  0  0  0  0  0 
    4.2399   -1.2584    1.8327 H   0  0  0  0  0  0  0  0  0  0  0  0 
    4.1428   -1.5987    0.0774 H   0  0  0  0  0  0  0  0  0  0  0  0 
    2.7886   -2.0458    1.1525 H   0  0  0  0  0  0  0  0  0  0  0  0 
    0.9709    0.5836   -0.4710 H   0  0  0  0  0  0  0  0  0  0  0  0 
    1.0025    2.0840   -1.4504 H   0  0  0  0  0  0  0  0  0  0  0  0 
   -0.2568    1.8545   -0.2051 H   0  0  0  0  0  0  0  0  0  0  0  0 
    6.8001    2.2585    0.1868 H   0  0  0  0  0  0  0  0  0  0  0  0 
    5.6022    0.1491    0.5532 H   0  0  0  0  0  0  0  0  0  0  0  0 
    3.0384    4.3619    0.1421 H   0  0  0  0  0  0  0  0  0  0  0  0 
    6.7584    4.7647    0.3226 H   0  0  0  0  0  0  0  0  0  0  0  0 
    5.2259    5.6156    0.3520 H   0  0  0  0  0  0  0  0  0  0  0  0 
    4.5733    3.9268   -2.0322 H   0  0  0  0  0  0  0  0  0  0  0  0 
  1 17  1  0  0  0  0 
  1 15  1  0  0  0  0 
  2 20  1  0  0  0  0 
  2 14  1  0  0  0  0 
  3  4  2  0  0  0  0 
  4  8  1  0  0  0  0 
  4 22  1  0  0  0  0 
  5  9  1  0  0  0  0 
  6  7  1  0  0  0  0 
  6 24  1  0  0  0  0 
  6 25  1  0  0  0  0 
  7  5  2  0  0  0  0 
  7  3  1  0  0  0  0 
  8 13  1  0  0  0  0 
  9  8  2  0  0  0  0 
  9 14  1  0  0  0  0 
 10  6  1  0  0  0  0 
 11 10  2  0  0  0  0 
 12 26  1  0  0  0  0 
 12 10  1  0  0  0  0 
 13  1  1  0  0  0  0 
 16  1  1  0  0  0  0 
 18  2  1  0  0  0  0 
 19  2  1  0  0  0  0 
 21  3  1  0  0  0  0 
 23  5  1  0  0  0  0 
M  END 
>  <HBA> 
4 
 
>  <HBD> 
1 
 
>  <TPSA> 
55.76 
 
>  <cid> 
7139 
 
>  <dipole> 
6.02 
 
>  <excitation_energy_1> 
4.808 
 
>  <excitation_energy_2> 
5.349 
 
>  <excitation_energy_3> 
5.425 
 
>  <excitation_energy_4> 
5.517 
 
>  <homo_energy> 
-6.15 
 
>  <homo_lumo_gap> 
5.657 
 
>  <logP> 
1.331 
 
>  <lumo_energy> 
-0.493 
 
>  <melting_point> 
95.86 
 
>  <molecular_refractivity> 
50.97 
 
>  <oscillator_strength_1> 
0.037 
 
>  <oscillator_strength_2> 
0.1098 
 
>  <oscillator_strength_3> 
0.0036 
 
>  <oscillator_strength_4> 
0.0077 
 
>  <open_babel_can_smiles> 
COc1cc(ccc1OC)CC(=O)O 
 
>  <mulliken_charges> 
26 
1   -0.219963 
2   -0.214634 
3   -0.173164 
4   -0.202983 
5   -0.253644 
6   -0.455325 
7   0.098251 
8   0.351663 
9   0.327119 
10   0.588215 
11   -0.443594 
12   -0.567353 
13   -0.505641 
14   -0.517523 
15   0.159501 
16   0.156224 
17   0.176246 
18   0.167111 
19   0.139687 
20   0.16485 
21   0.138592 
22   0.142754 
23   0.146372 
24   0.189131 
25   0.192847 
26   0.415259 
 
>  <lowdin_charges> 
26 
1   -0.278153 
2   -0.271747 
3   -0.159933 
4   -0.202653 
5   -0.196023 
6   -0.31395 
7   -0.041452 
8   0.078987 
9   0.075914 
10   0.188631 
11   -0.246639 
12   -0.35612 
13   -0.191016 
14   -0.219404 
15   0.150152 
16   0.148089 
17   0.167371 
18   0.15009 
19   0.138399 
20   0.158185 
21   0.160608 
22   0.167683 
23   0.170052 
24   0.180335 
25   0.182288 
26   0.360303 
 
$$$$ 
 
