PCCDB-ID:  8285 
public computational chemistry database (PCCDB) project, http://pccdb.org 
 
 21 20  0  0  0  0  0  0  0  0999 V2000 
    0.9813    0.1196   -0.1333 C   0  0  0  0  0  0  0  0  0  0  0  0 
    1.1709    0.5634    2.3378 C   0  0  0  0  0  0  0  0  0  0  0  0 
    1.1028    2.4997    0.6933 C   0  0  0  0  0  0  0  0  0  0  0  0 
   -0.9686    1.0935    1.0833 C   0  0  0  0  0  0  0  0  0  0  0  0 
    0.5759    1.0803    1.0072 C   0  0  0  0  0  0  0  0  0  0  0  0 
    2.3872   -0.0553   -0.2757 O   0  0  0  0  0  0  0  0  0  0  0  0 
    0.7634    1.3333    3.4771 O   0  0  0  0  0  0  0  0  0  0  0  0 
    0.8241    3.4555    1.7173 O   0  0  0  0  0  0  0  0  0  0  0  0 
   -1.4784    2.0020    2.0629 O   0  0  0  0  0  0  0  0  0  0  0  0 
    0.5278    0.4572   -1.0791 H   0  0  0  0  0  0  0  0  0  0  0  0 
    0.5823   -0.8793    0.0765 H   0  0  0  0  0  0  0  0  0  0  0  0 
    2.2655    0.5300    2.2644 H   0  0  0  0  0  0  0  0  0  0  0  0 
    0.8224   -0.4586    2.5269 H   0  0  0  0  0  0  0  0  0  0  0  0 
    0.6880    2.8406   -0.2708 H   0  0  0  0  0  0  0  0  0  0  0  0 
    2.1944    2.4789    0.5970 H   0  0  0  0  0  0  0  0  0  0  0  0 
   -1.3369    0.0739    1.2818 H   0  0  0  0  0  0  0  0  0  0  0  0 
   -1.3931    1.4135    0.1239 H   0  0  0  0  0  0  0  0  0  0  0  0 
    2.7434    0.7094   -0.7513 H   0  0  0  0  0  0  0  0  0  0  0  0 
    1.0445    2.2497    3.2779 H   0  0  0  0  0  0  0  0  0  0  0  0 
   -0.1464    3.4061    1.8476 H   0  0  0  0  0  0  0  0  0  0  0  0 
   -1.0321    1.7421    2.8974 H   0  0  0  0  0  0  0  0  0  0  0  0 
  1 11  1  0  0  0  0 
  1  5  1  0  0  0  0 
  2 13  1  0  0  0  0 
  2  7  1  0  0  0  0 
  3  5  1  0  0  0  0 
  3  8  1  0  0  0  0 
  4 16  1  0  0  0  0 
  4  9  1  0  0  0  0 
  5  4  1  0  0  0  0 
  5  2  1  0  0  0  0 
  6  1  1  0  0  0  0 
  8 20  1  0  0  0  0 
  9 21  1  0  0  0  0 
 10  1  1  0  0  0  0 
 12  2  1  0  0  0  0 
 14  3  1  0  0  0  0 
 15  3  1  0  0  0  0 
 17  4  1  0  0  0  0 
 18  6  1  0  0  0  0 
 19  7  1  0  0  0  0 
M  END 
>  <HBA> 
4 
 
>  <HBD> 
4 
 
>  <TPSA> 
80.92 
 
>  <cid> 
8285 
 
>  <dipole> 
2.45 
 
>  <excitation_energy_1> 
6.391 
 
>  <excitation_energy_2> 
6.506 
 
>  <excitation_energy_3> 
6.571 
 
>  <excitation_energy_4> 
6.643 
 
>  <homo_energy> 
-7.181 
 
>  <homo_lumo_gap> 
8.471 
 
>  <logP> 
-2.058 
 
>  <lumo_energy> 
1.29 
 
>  <melting_point> 
67.26 
 
>  <molecular_refractivity> 
30.54 
 
>  <oscillator_strength_1> 
0.0085 
 
>  <oscillator_strength_2> 
0.0118 
 
>  <oscillator_strength_3> 
0.005 
 
>  <oscillator_strength_4> 
0.0096 
 
>  <open_babel_can_smiles> 
OCC(CO)(CO)CO 
 
>  <mulliken_charges> 
21 
1   -0.051733 
2   -0.03773 
3   -0.044259 
4   -0.038641 
5   -0.031263 
6   -0.612804 
7   -0.650183 
8   -0.647993 
9   -0.648943 
10   0.1291 
11   0.152792 
12   0.153826 
13   0.144554 
14   0.125935 
15   0.13731 
16   0.133257 
17   0.143969 
18   0.399279 
19   0.413117 
20   0.414317 
21   0.416093 
 
>  <lowdin_charges> 
21 
1   -0.13495 
2   -0.135127 
3   -0.139599 
4   -0.136663 
5   -0.070683 
6   -0.461708 
7   -0.475221 
8   -0.472285 
9   -0.475588 
10   0.133449 
11   0.150985 
12   0.143707 
13   0.146047 
14   0.130099 
15   0.139898 
16   0.134025 
17   0.145 
18   0.34713 
19   0.343348 
20   0.342452 
21   0.345682 
 
$$$$ 
 
