PCCDB-ID:  43769 
public computational chemistry database (PCCDB) project, http://pccdb.org 
 
 28 27  0  0  0  0  0  0  0  0999 V2000 
    7.8589    1.8221    3.6597 C   0  0  0  0  0  0  0  0  0  0  0  0 
    1.5309   -2.0160    4.3441 C   0  0  0  0  0  0  0  0  0  0  0  0 
    8.4374    1.0190    2.4879 C   0  0  0  0  0  0  0  0  0  0  0  0 
    2.8299   -2.6970    3.9163 C   0  0  0  0  0  0  0  0  0  0  0  0 
    7.8223   -0.3778    2.3042 C   0  0  0  0  0  0  0  0  0  0  0  0 
    6.3421   -0.3374    1.8927 C   0  0  0  0  0  0  0  0  0  0  0  0 
    5.0678   -2.4200    2.6484 C   0  0  0  0  0  0  0  0  0  0  0  0 
    3.6819   -1.8455    2.9857 C   0  0  0  0  0  0  0  0  0  0  0  0 
    5.9318   -2.2937    0.4636 N   0  0  0  0  0  0  0  0  0  0  0  0 
    5.7925   -1.6730    1.6479 N   0  0  0  0  0  0  0  0  0  0  0  0 
    3.3066   -0.7820    2.5369 O   0  0  0  0  0  0  0  0  0  0  0  0 
    6.5590   -1.6637   -0.3819 O   0  0  0  0  0  0  0  0  0  0  0  0 
    8.3774    2.7809    3.7710 H   0  0  0  0  0  0  0  0  0  0  0  0 
    7.9671    1.2751    4.6050 H   0  0  0  0  0  0  0  0  0  0  0  0 
    6.7940    2.0426    3.5229 H   0  0  0  0  0  0  0  0  0  0  0  0 
    0.9431   -2.6792    4.9865 H   0  0  0  0  0  0  0  0  0  0  0  0 
    0.9265   -1.7493    3.4727 H   0  0  0  0  0  0  0  0  0  0  0  0 
    1.7350   -1.0931    4.8955 H   0  0  0  0  0  0  0  0  0  0  0  0 
    9.5190    0.9017    2.6336 H   0  0  0  0  0  0  0  0  0  0  0  0 
    8.3177    1.5887    1.5559 H   0  0  0  0  0  0  0  0  0  0  0  0 
    2.6221   -3.6439    3.3949 H   0  0  0  0  0  0  0  0  0  0  0  0 
    3.4395   -2.9791    4.7873 H   0  0  0  0  0  0  0  0  0  0  0  0 
    7.9303   -0.9536    3.2350 H   0  0  0  0  0  0  0  0  0  0  0  0 
    8.3736   -0.9198    1.5283 H   0  0  0  0  0  0  0  0  0  0  0  0 
    6.2298    0.2209    0.9588 H   0  0  0  0  0  0  0  0  0  0  0  0 
    5.7134    0.1348    2.6492 H   0  0  0  0  0  0  0  0  0  0  0  0 
    4.9564   -3.4405    2.2650 H   0  0  0  0  0  0  0  0  0  0  0  0 
    5.6526   -2.4897    3.5778 H   0  0  0  0  0  0  0  0  0  0  0  0 
  1 13  1  0  0  0  0 
  1 14  1  0  0  0  0 
  2 18  1  0  0  0  0 
  2 16  1  0  0  0  0 
  3 19  1  0  0  0  0 
  3  1  1  0  0  0  0 
  4  2  1  0  0  0  0 
  4 22  1  0  0  0  0 
  5  3  1  0  0  0  0 
  5 23  1  0  0  0  0 
  6  5  1  0  0  0  0 
  6 26  1  0  0  0  0 
  7  8  1  0  0  0  0 
  7 28  1  0  0  0  0 
  8  4  1  0  0  0  0 
  9 10  1  0  0  0  0 
 10  6  1  0  0  0  0 
 10  7  1  0  0  0  0 
 11  8  2  0  0  0  0 
 12  9  2  0  0  0  0 
 15  1  1  0  0  0  0 
 17  2  1  0  0  0  0 
 20  3  1  0  0  0  0 
 21  4  1  0  0  0  0 
 24  5  1  0  0  0  0 
 25  6  1  0  0  0  0 
 27  7  1  0  0  0  0 
M  END 
>  <HBA> 
4 
 
>  <HBD> 
0 
 
>  <TPSA> 
49.74 
 
>  <cid> 
43769 
 
>  <dipole> 
4.78 
 
>  <excitation_energy_1> 
3.381 
 
>  <excitation_energy_2> 
4.348 
 
>  <excitation_energy_3> 
4.542 
 
>  <excitation_energy_4> 
5.282 
 
>  <homo_energy> 
-6.049 
 
>  <homo_lumo_gap> 
5.165 
 
>  <logP> 
1.749 
 
>  <lumo_energy> 
-0.884 
 
>  <melting_point> 
15.19 
 
>  <molecular_refractivity> 
48.4 
 
>  <oscillator_strength_1> 
0.0011 
 
>  <oscillator_strength_2> 
0.001 
 
>  <oscillator_strength_3> 
0.0003 
 
>  <oscillator_strength_4> 
0.0686 
 
>  <open_babel_can_smiles> 
CCCCN(CC(=O)CC)N=O 
 
>  <mulliken_charges> 
28 
1   -0.449097 
2   -0.435347 
3   -0.254991 
4   -0.356102 
5   -0.260143 
6   -0.150528 
7   -0.232992 
8   0.457363 
9   0.149881 
10   -0.204497 
11   -0.428037 
12   -0.379837 
13   0.14879 
14   0.139488 
15   0.149916 
16   0.146763 
17   0.170452 
18   0.160485 
19   0.139126 
20   0.143043 
21   0.172009 
22   0.160271 
23   0.124938 
24   0.163518 
25   0.184106 
26   0.168443 
27   0.197071 
28   0.175907 
 
>  <lowdin_charges> 
28 
1   -0.446609 
2   -0.440805 
3   -0.270538 
4   -0.30933 
5   -0.285208 
6   -0.218783 
7   -0.240953 
8   0.154292 
9   0.051811 
10   -0.028526 
11   -0.220263 
12   -0.269224 
13   0.153252 
14   0.145046 
15   0.146835 
16   0.155551 
17   0.16446 
18   0.158864 
19   0.144999 
20   0.145671 
21   0.167893 
22   0.161758 
23   0.136188 
24   0.159874 
25   0.171689 
26   0.163637 
27   0.18218 
28   0.16624 
 
$$$$ 
 
