PCCDB-ID:  67458 
public computational chemistry database (PCCDB) project, http://pccdb.org 
 
 31 35  0  0  0  0  0  0  0  0999 V2000 
    4.6706    0.1999    0.0025 C   0  0  0  0  0  0  0  0  0  0  0  0 
    4.2614   -1.1483   -0.0030 C   0  0  0  0  0  0  0  0  0  0  0  0 
   -4.4421    0.3260    0.0097 C   0  0  0  0  0  0  0  0  0  0  0  0 
    3.7251    1.2060    0.0074 C   0  0  0  0  0  0  0  0  0  0  0  0 
   -3.8171   -0.9158    0.0036 C   0  0  0  0  0  0  0  0  0  0  0  0 
   -3.7271    1.5563    0.0140 C   0  0  0  0  0  0  0  0  0  0  0  0 
    2.9164   -1.4652   -0.0035 C   0  0  0  0  0  0  0  0  0  0  0  0 
   -1.5396   -2.1414   -0.0036 C   0  0  0  0  0  0  0  0  0  0  0  0 
   -0.1629   -2.0254   -0.0039 C   0  0  0  0  0  0  0  0  0  0  0  0 
    1.3838    2.0045    0.0127 C   0  0  0  0  0  0  0  0  0  0  0  0 
   -1.2329    2.5713    0.0153 C   0  0  0  0  0  0  0  0  0  0  0  0 
   -2.4009   -0.9893    0.0021 C   0  0  0  0  0  0  0  0  0  0  0  0 
    2.3376    0.9205    0.0074 C   0  0  0  0  0  0  0  0  0  0  0  0 
   -2.3466    1.5150    0.0125 C   0  0  0  0  0  0  0  0  0  0  0  0 
    0.0478    1.7241    0.0124 C   0  0  0  0  0  0  0  0  0  0  0  0 
    1.9219   -0.4598    0.0016 C   0  0  0  0  0  0  0  0  0  0  0  0 
    0.5041   -0.7492    0.0014 C   0  0  0  0  0  0  0  0  0  0  0  0 
   -1.7390    0.2463    0.0072 C   0  0  0  0  0  0  0  0  0  0  0  0 
   -0.3374    0.3566    0.0070 C   0  0  0  0  0  0  0  0  0  0  0  0 
    5.7288    0.4467    0.0029 H   0  0  0  0  0  0  0  0  0  0  0  0 
    5.0049   -1.9409   -0.0071 H   0  0  0  0  0  0  0  0  0  0  0  0 
   -5.5285    0.3634    0.0118 H   0  0  0  0  0  0  0  0  0  0  0  0 
    4.0387    2.2476    0.0112 H   0  0  0  0  0  0  0  0  0  0  0  0 
   -4.4160   -1.8233   -0.0001 H   0  0  0  0  0  0  0  0  0  0  0  0 
   -4.2777    2.4938    0.0178 H   0  0  0  0  0  0  0  0  0  0  0  0 
    2.6146   -2.5086   -0.0080 H   0  0  0  0  0  0  0  0  0  0  0  0 
   -1.9848   -3.1337   -0.0075 H   0  0  0  0  0  0  0  0  0  0  0  0 
    0.4282   -2.9369   -0.0083 H   0  0  0  0  0  0  0  0  0  0  0  0 
    1.7662    3.0231    0.0167 H   0  0  0  0  0  0  0  0  0  0  0  0 
   -1.2890    3.2244    0.8962 H   0  0  0  0  0  0  0  0  0  0  0  0 
   -1.2892    3.2279   -0.8630 H   0  0  0  0  0  0  0  0  0  0  0  0 
  1 20  1  0  0  0  0 
  1  4  2  0  0  0  0 
  2  1  1  0  0  0  0 
  3 22  1  0  0  0  0 
  3  6  2  0  0  0  0 
  4 23  1  0  0  0  0 
  5  3  1  0  0  0  0 
  6 25  1  0  0  0  0 
  7  2  2  0  0  0  0 
  7 16  1  0  0  0  0 
  8 12  1  0  0  0  0 
  9  8  2  0  0  0  0 
  9 17  1  0  0  0  0 
 10 29  1  0  0  0  0 
 11 30  1  0  0  0  0 
 12  5  2  0  0  0  0 
 12 18  1  0  0  0  0 
 13  4  1  0  0  0  0 
 13 10  2  0  0  0  0 
 14  6  1  0  0  0  0 
 14 11  1  0  0  0  0 
 15 10  1  0  0  0  0 
 15 11  1  0  0  0  0 
 16 13  1  0  0  0  0 
 17 16  2  0  0  0  0 
 17 19  1  0  0  0  0 
 18 14  2  0  0  0  0 
 19 18  1  0  0  0  0 
 19 15  2  0  0  0  0 
 21  2  1  0  0  0  0 
 24  5  1  0  0  0  0 
 26  7  1  0  0  0  0 
 27  8  1  0  0  0  0 
 28  9  1  0  0  0  0 
 31 11  1  0  0  0  0 
M  END 
>  <HBA> 
0 
 
>  <HBD> 
0 
 
>  <TPSA> 
0.0 
 
>  <cid> 
67458 
 
>  <dipole> 
0.6 
 
>  <excitation_energy_1> 
3.746 
 
>  <excitation_energy_2> 
3.759 
 
>  <excitation_energy_3> 
4.246 
 
>  <excitation_energy_4> 
4.516 
 
>  <homo_energy> 
-5.407 
 
>  <homo_lumo_gap> 
4.215 
 
>  <logP> 
5.05 
 
>  <lumo_energy> 
-1.192 
 
>  <melting_point> 
171.25 
 
>  <molecular_refractivity> 
81.97 
 
>  <oscillator_strength_1> 
0.092 
 
>  <oscillator_strength_2> 
0.0231 
 
>  <oscillator_strength_3> 
0.0318 
 
>  <oscillator_strength_4> 
0.1222 
 
>  <open_babel_can_smiles> 
c1ccc2c(c1)c1ccc3c4c1c(c2)Cc4ccc3 
 
>  <mulliken_charges> 
31 
1   -0.127901 
2   -0.142872 
3   -0.118507 
4   -0.215235 
5   -0.230305 
6   -0.238768 
7   -0.184491 
8   -0.213939 
9   -0.191328 
10   -0.320273 
11   -0.431232 
12   0.209422 
13   0.178299 
14   0.138443 
15   0.155109 
16   0.025873 
17   0.112712 
18   -0.028528 
19   -0.011913 
20   0.128108 
21   0.128424 
22   0.126719 
23   0.127159 
24   0.128769 
25   0.126377 
26   0.131365 
27   0.128718 
28   0.131145 
29   0.125906 
30   0.176314 
31   0.176428 
 
>  <lowdin_charges> 
31 
1   -0.158318 
2   -0.159407 
3   -0.152169 
4   -0.157127 
5   -0.164512 
6   -0.170804 
7   -0.157376 
8   -0.158382 
9   -0.15685 
10   -0.167067 
11   -0.273376 
12   -0.004379 
13   0.002706 
14   -0.000495 
15   -0.004123 
16   -0.003551 
17   -0.010457 
18   -0.008126 
19   -0.007971 
20   0.15652 
21   0.158765 
22   0.155789 
23   0.154868 
24   0.157853 
25   0.157225 
26   0.156035 
27   0.158055 
28   0.158697 
29   0.155845 
30   0.171023 
31   0.17111 
 
$$$$ 
 
