PCCDB-ID:  35994 
public computational chemistry database (PCCDB) project, http://pccdb.org 
 
 40 42  0  0  1  0  0  0  0  0999 V2000 
    2.3110   -0.0883   -1.1296 C   0  0  0  0  0  0  0  0  0  0  0  0 
    1.7129    1.6555    0.3978 C   0  0  0  0  0  0  0  0  0  0  0  0 
    4.2284   -1.0875    1.0415 C   0  0  0  0  0  0  0  0  0  0  0  0 
    2.9585   -0.2414    1.2146 C   0  0  0  0  0  0  0  0  0  0  0  0 
    4.4650   -2.8939    5.0714 C   0  0  0  0  0  0  0  0  0  0  0  0 
    6.8253   -2.5729    4.2575 C   0  0  0  0  0  0  0  0  0  0  0  0 
    5.4717   -4.5390    3.4541 C   0  0  0  0  0  0  0  0  0  0  0  0 
    5.0010   -1.0077    3.4927 C   0  0  0  0  0  0  0  0  0  0  0  0 
    3.6497   -2.9707    2.6907 C   0  0  0  0  0  0  0  0  0  0  0  0 
    6.0028   -2.6483    1.8830 C   0  0  0  0  0  0  0  0  0  0  0  0 
    5.5294   -1.8495    4.6738 C   0  0  1  0  0  0  0  0  0  0  0  0 
    4.1746   -3.8170    3.8703 C   0  0  2  0  0  0  0  0  0  0  0  0 
    6.5346   -3.4943    3.0560 C   0  0  1  0  0  0  0  0  0  0  0  0 
    4.6952   -1.9061    2.2671 C   0  0  1  0  0  0  0  0  0  0  0  0 
    2.7038    0.6394    0.0699 N   0  0  0  0  0  0  0  0  0  0  0  0 
    2.1571    0.6196   -1.9512 H   0  0  0  0  0  0  0  0  0  0  0  0 
    1.3737   -0.6673   -0.9987 H   0  0  0  0  0  0  0  0  0  0  0  0 
    3.0988   -0.7828   -1.4344 H   0  0  0  0  0  0  0  0  0  0  0  0 
    1.5926    2.3410   -0.4488 H   0  0  0  0  0  0  0  0  0  0  0  0 
    2.0502    2.2400    1.2610 H   0  0  0  0  0  0  0  0  0  0  0  0 
    0.7148    1.2362    0.6381 H   0  0  0  0  0  0  0  0  0  0  0  0 
    5.0367   -0.4067    0.7401 H   0  0  0  0  0  0  0  0  0  0  0  0 
    4.0913   -1.7913    0.2094 H   0  0  0  0  0  0  0  0  0  0  0  0 
    3.0771    0.4082    2.0889 H   0  0  0  0  0  0  0  0  0  0  0  0 
    2.0836   -0.8908    1.4205 H   0  0  0  0  0  0  0  0  0  0  0  0 
    3.5425   -2.3892    5.3913 H   0  0  0  0  0  0  0  0  0  0  0  0 
    4.8175   -3.4861    5.9272 H   0  0  0  0  0  0  0  0  0  0  0  0 
    7.2184   -3.1598    5.0993 H   0  0  0  0  0  0  0  0  0  0  0  0 
    7.5993   -1.8387    3.9925 H   0  0  0  0  0  0  0  0  0  0  0  0 
    5.2740   -5.2163    2.6114 H   0  0  0  0  0  0  0  0  0  0  0  0 
    5.8418   -5.1594    4.2822 H   0  0  0  0  0  0  0  0  0  0  0  0 
    5.7397   -0.2418    3.2141 H   0  0  0  0  0  0  0  0  0  0  0  0 
    4.0956   -0.4730    3.8092 H   0  0  0  0  0  0  0  0  0  0  0  0 
    2.7085   -2.4846    2.9804 H   0  0  0  0  0  0  0  0  0  0  0  0 
    3.4188   -3.6207    1.8339 H   0  0  0  0  0  0  0  0  0  0  0  0 
    5.8162   -3.2926    1.0114 H   0  0  0  0  0  0  0  0  0  0  0  0 
    6.7617   -1.9145    1.5747 H   0  0  0  0  0  0  0  0  0  0  0  0 
    5.7338   -1.1877    5.5262 H   0  0  0  0  0  0  0  0  0  0  0  0 
    3.4136   -4.5581    4.1505 H   0  0  0  0  0  0  0  0  0  0  0  0 
    7.4576   -4.0046    2.7493 H   0  0  0  0  0  0  0  0  0  0  0  0 
  1 17  1  0  0  0  0 
  1 15  1  0  0  0  0 
  2 21  1  0  0  0  0 
  2 20  1  0  0  0  0 
  3  4  1  0  0  0  0 
  4 25  1  0  0  0  0 
  4 24  1  0  0  0  0 
  5 26  1  0  0  0  0 
  5 27  1  0  0  0  0 
  6 11  1  0  0  0  0 
  6 28  1  0  0  0  0 
  7 12  1  0  0  0  0 
  7 31  1  0  0  0  0 
  8 33  1  0  0  0  0 
  8 11  1  0  0  0  0 
  9 34  1  0  0  0  0 
  9 12  1  0  0  0  0 
 10 14  1  0  0  0  0 
 10 13  1  0  0  0  0 
 11  5  1  0  0  0  0 
 11 38  1  1  0  0  0 
 12 39  1  1  0  0  0 
 12  5  1  0  0  0  0 
 13 40  1  6  0  0  0 
 13  7  1  0  0  0  0 
 13  6  1  0  0  0  0 
 14  3  1  6  0  0  0 
 14  9  1  0  0  0  0 
 14  8  1  0  0  0  0 
 15  2  1  0  0  0  0 
 15  4  1  0  0  0  0 
 16  1  1  0  0  0  0 
 18  1  1  0  0  0  0 
 19  2  1  0  0  0  0 
 22  3  1  0  0  0  0 
 23  3  1  0  0  0  0 
 29  6  1  0  0  0  0 
 30  7  1  0  0  0  0 
 32  8  1  0  0  0  0 
 35  9  1  0  0  0  0 
 36 10  1  0  0  0  0 
 37 10  1  0  0  0  0 
M  END 
>  <HBA> 
1 
 
>  <HBD> 
0 
 
>  <TPSA> 
3.24 
 
>  <cid> 
35994 
 
>  <dipole> 
0.54 
 
>  <excitation_energy_1> 
5.15 
 
>  <excitation_energy_2> 
5.443 
 
>  <excitation_energy_3> 
5.568 
 
>  <excitation_energy_4> 
5.727 
 
>  <homo_energy> 
-5.584 
 
>  <homo_lumo_gap> 
7.464 
 
>  <logP> 
3.155 
 
>  <lumo_energy> 
1.88 
 
>  <melting_point> 
57.18 
 
>  <molecular_refractivity> 
65.71 
 
>  <oscillator_strength_1> 
0.015 
 
>  <oscillator_strength_2> 
0.0124 
 
>  <oscillator_strength_3> 
0.0026 
 
>  <oscillator_strength_4> 
0.0353 
 
>  <open_babel_can_smiles> 
CN(CC[C@]12C[C@H]3C[C@@H](C2)C[C@@H](C1)C3)C 
 
>  <mulliken_charges> 
40 
1   -0.299787 
2   -0.291851 
3   -0.273669 
4   -0.121923 
5   -0.264576 
6   -0.263216 
7   -0.263875 
8   -0.27744 
9   -0.276051 
10   -0.272065 
11   -0.091354 
12   -0.090108 
13   -0.090022 
14   0.087878 
15   -0.369425 
16   0.146126 
17   0.113217 
18   0.154149 
19   0.145653 
20   0.146834 
21   0.113925 
22   0.137534 
23   0.125713 
24   0.135984 
25   0.109857 
26   0.123507 
27   0.124231 
28   0.123614 
29   0.12428 
30   0.123793 
31   0.123758 
32   0.124046 
33   0.126455 
34   0.127988 
35   0.121139 
36   0.121373 
37   0.123465 
38   0.11375 
39   0.113528 
40   0.113567 
 
>  <lowdin_charges> 
40 
1   -0.360246 
2   -0.35613 
3   -0.280851 
4   -0.204956 
5   -0.282081 
6   -0.282629 
7   -0.282419 
8   -0.282535 
9   -0.282462 
10   -0.279722 
11   -0.131675 
12   -0.132002 
13   -0.131991 
14   0.001146 
15   -0.183427 
16   0.14996 
17   0.117632 
18   0.151922 
19   0.14866 
20   0.148711 
21   0.117265 
22   0.14777 
23   0.13999 
24   0.144145 
25   0.116692 
26   0.138783 
27   0.140008 
28   0.139754 
29   0.139774 
30   0.139358 
31   0.139865 
32   0.140184 
33   0.139271 
34   0.139475 
35   0.138572 
36   0.13821 
37   0.139849 
38   0.138759 
39   0.13888 
40   0.13849 
 
$$$$ 
 
