PCCDB-ID:  69410 
public computational chemistry database (PCCDB) project, http://pccdb.org 
 
 26 25  0  0  0  0  0  0  0  0999 V2000 
    3.8643    3.2683   -2.3907 C   0  0  0  0  0  0  0  0  0  0  0  0 
    8.1192    1.9276    5.6849 C   0  0  0  0  0  0  0  0  0  0  0  0 
    5.3462    2.9684    1.8186 C   0  0  0  0  0  0  0  0  0  0  0  0 
    6.6196    2.1867    1.4734 C   0  0  0  0  0  0  0  0  0  0  0  0 
    4.0816    2.3763    1.2055 C   0  0  0  0  0  0  0  0  0  0  0  0 
    7.8852    2.7823    2.0807 C   0  0  0  0  0  0  0  0  0  0  0  0 
    3.7523    3.4590   -0.8955 C   0  0  0  0  0  0  0  0  0  0  0  0 
    8.2303    1.7230    4.1915 C   0  0  0  0  0  0  0  0  0  0  0  0 
    3.3624    4.4650   -0.3443 O   0  0  0  0  0  0  0  0  0  0  0  0 
    8.6338    0.7174    3.6496 O   0  0  0  0  0  0  0  0  0  0  0  0 
    4.1463    2.3392   -0.2411 O   0  0  0  0  0  0  0  0  0  0  0  0 
    7.8200    2.8311    3.5269 O   0  0  0  0  0  0  0  0  0  0  0  0 
    3.5412    4.1778   -2.8981 H   0  0  0  0  0  0  0  0  0  0  0  0 
    3.2462    2.4228   -2.7097 H   0  0  0  0  0  0  0  0  0  0  0  0 
    4.8987    3.0360   -2.6647 H   0  0  0  0  0  0  0  0  0  0  0  0 
    8.7410    2.7738    5.9952 H   0  0  0  0  0  0  0  0  0  0  0  0 
    8.4408    1.0221    6.2003 H   0  0  0  0  0  0  0  0  0  0  0  0 
    7.0861    2.1660    5.9581 H   0  0  0  0  0  0  0  0  0  0  0  0 
    5.4380    4.0127    1.4956 H   0  0  0  0  0  0  0  0  0  0  0  0 
    5.2101    2.9900    2.9076 H   0  0  0  0  0  0  0  0  0  0  0  0 
    6.7529    2.1613    0.3841 H   0  0  0  0  0  0  0  0  0  0  0  0 
    6.5294    1.1432    1.8002 H   0  0  0  0  0  0  0  0  0  0  0  0 
    3.2005    2.9491    1.5040 H   0  0  0  0  0  0  0  0  0  0  0  0 
    3.9527    1.3296    1.4961 H   0  0  0  0  0  0  0  0  0  0  0  0 
    8.0154    3.8262    1.7808 H   0  0  0  0  0  0  0  0  0  0  0  0 
    8.7651    2.2052    1.7873 H   0  0  0  0  0  0  0  0  0  0  0  0 
  1  7  1  0  0  0  0 
  2 18  1  0  0  0  0 
  2 16  1  0  0  0  0 
  2 17  1  0  0  0  0 
  3 20  1  0  0  0  0 
  4 22  1  0  0  0  0 
  4  3  1  0  0  0  0 
  4  6  1  0  0  0  0 
  5 24  1  0  0  0  0 
  5 23  1  0  0  0  0 
  5  3  1  0  0  0  0 
  6 12  1  0  0  0  0 
  7  9  2  0  0  0  0 
  7 11  1  0  0  0  0 
  8  2  1  0  0  0  0 
 10  8  2  0  0  0  0 
 11  5  1  0  0  0  0 
 12  8  1  0  0  0  0 
 13  1  1  0  0  0  0 
 14  1  1  0  0  0  0 
 15  1  1  0  0  0  0 
 19  3  1  0  0  0  0 
 21  4  1  0  0  0  0 
 25  6  1  0  0  0  0 
 26  6  1  0  0  0  0 
M  END 
>  <HBA> 
4 
 
>  <HBD> 
0 
 
>  <TPSA> 
52.6 
 
>  <cid> 
69410 
 
>  <dipole> 
0.02 
 
>  <excitation_energy_1> 
5.798 
 
>  <excitation_energy_2> 
5.802 
 
>  <excitation_energy_3> 
6.935 
 
>  <excitation_energy_4> 
6.951 
 
>  <homo_energy> 
-7.366 
 
>  <homo_lumo_gap> 
7.668 
 
>  <logP> 
0.893 
 
>  <lumo_energy> 
0.302 
 
>  <melting_point> 
-3.01 
 
>  <molecular_refractivity> 
43.14 
 
>  <oscillator_strength_1> 
0.0009 
 
>  <oscillator_strength_2> 
0.0012 
 
>  <oscillator_strength_3> 
0.0002 
 
>  <oscillator_strength_4> 
0.0517 
 
>  <open_babel_can_smiles> 
CC(=O)OCCCCOC(=O)C 
 
>  <mulliken_charges> 
26 
1   -0.522303 
2   -0.522259 
3   -0.280629 
4   -0.280591 
5   -0.052529 
6   -0.053012 
7   0.599541 
8   0.599408 
9   -0.46778 
10   -0.467642 
11   -0.452863 
12   -0.452853 
13   0.182734 
14   0.182954 
15   0.179973 
16   0.183147 
17   0.182683 
18   0.179827 
19   0.160396 
20   0.149657 
21   0.149574 
22   0.15972 
23   0.170633 
24   0.15054 
25   0.15057 
26   0.171103 
 
>  <lowdin_charges> 
26 
1   -0.465122 
2   -0.465119 
3   -0.285754 
4   -0.28562 
5   -0.129154 
6   -0.129386 
7   0.200166 
8   0.200064 
9   -0.267017 
10   -0.2669 
11   -0.203505 
12   -0.203543 
13   0.176131 
14   0.17904 
15   0.175808 
16   0.179193 
17   0.176123 
18   0.175693 
19   0.154513 
20   0.153031 
21   0.152926 
22   0.154152 
23   0.16147 
24   0.150535 
25   0.150536 
26   0.161737 
 
$$$$ 
 
