PCCDB-ID:  7029 
public computational chemistry database (PCCDB) project, http://pccdb.org 
 
 34 34  0  0  1  0  0  0  0  0999 V2000 
    7.8161   -1.0392    1.0764 C   0  0  0  0  0  0  0  0  0  0  0  0 
    5.5691    1.1339    2.5517 C   0  0  0  0  0  0  0  0  0  0  0  0 
    3.8348   -1.0841   -1.1097 C   0  0  0  0  0  0  0  0  0  0  0  0 
    6.6086   -0.6009    0.2403 C   0  0  0  0  0  0  0  0  0  0  0  0 
    4.7417    0.4749    1.4463 C   0  0  0  0  0  0  0  0  0  0  0  0 
    5.2087   -5.7289    3.4313 C   0  0  0  0  0  0  0  0  0  0  0  0 
    5.4344   -6.1785    2.1269 C   0  0  0  0  0  0  0  0  0  0  0  0 
    4.8981   -4.3872    3.6621 C   0  0  0  0  0  0  0  0  0  0  0  0 
    5.3474   -5.2889    1.0606 C   0  0  0  0  0  0  0  0  0  0  0  0 
    4.8045   -3.4954    2.5942 C   0  0  0  0  0  0  0  0  0  0  0  0 
    4.3404   -1.6201    0.2391 C   0  0  1  0  0  0  0  0  0  0  0  0 
    5.0256   -3.9392    1.2807 C   0  0  0  0  0  0  0  0  0  0  0  0 
    4.9145   -3.0461    0.0811 C   0  0  0  0  0  0  0  0  0  0  0  0 
    5.3224   -0.7749    0.9459 N   0  0  0  0  0  0  0  0  0  0  0  0 
    5.2524   -3.4497   -1.0230 O   0  0  0  0  0  0  0  0  0  0  0  0 
    8.7448   -0.8953    0.5102 H   0  0  0  0  0  0  0  0  0  0  0  0 
    7.7364   -2.0988    1.3399 H   0  0  0  0  0  0  0  0  0  0  0  0 
    7.8920   -0.4694    2.0075 H   0  0  0  0  0  0  0  0  0  0  0  0 
    5.0470    2.0210    2.9290 H   0  0  0  0  0  0  0  0  0  0  0  0 
    6.5491    1.4601    2.1886 H   0  0  0  0  0  0  0  0  0  0  0  0 
    5.7280    0.4419    3.3856 H   0  0  0  0  0  0  0  0  0  0  0  0 
    3.0631   -1.7446   -1.5190 H   0  0  0  0  0  0  0  0  0  0  0  0 
    4.6382   -1.0287   -1.8484 H   0  0  0  0  0  0  0  0  0  0  0  0 
    3.3984   -0.0879   -0.9848 H   0  0  0  0  0  0  0  0  0  0  0  0 
    6.5956   -1.1882   -0.6836 H   0  0  0  0  0  0  0  0  0  0  0  0 
    6.7279    0.4489   -0.0706 H   0  0  0  0  0  0  0  0  0  0  0  0 
    4.5847    1.2109    0.6348 H   0  0  0  0  0  0  0  0  0  0  0  0 
    3.7481    0.2370    1.8463 H   0  0  0  0  0  0  0  0  0  0  0  0 
    5.2778   -6.4224    4.2654 H   0  0  0  0  0  0  0  0  0  0  0  0 
    5.6775   -7.2219    1.9450 H   0  0  0  0  0  0  0  0  0  0  0  0 
    4.7324   -4.0333    4.6761 H   0  0  0  0  0  0  0  0  0  0  0  0 
    5.5188   -5.6159    0.0402 H   0  0  0  0  0  0  0  0  0  0  0  0 
    4.5994   -2.4476    2.7803 H   0  0  0  0  0  0  0  0  0  0  0  0 
    3.4797   -1.7045    0.9162 H   0  0  0  0  0  0  0  0  0  0  0  0 
  1 17  1  0  0  0  0 
  1 18  1  0  0  0  0 
  2 19  1  0  0  0  0 
  2 21  1  0  0  0  0 
  3 24  1  0  0  0  0 
  3 11  1  0  0  0  0 
  4 14  1  0  0  0  0 
  4  1  1  0  0  0  0 
  5 28  1  0  0  0  0 
  5  2  1  0  0  0  0 
  6  8  1  0  0  0  0 
  6 29  1  0  0  0  0 
  7  6  2  0  0  0  0 
  8 31  1  0  0  0  0 
  9 12  2  0  0  0  0 
  9  7  1  0  0  0  0 
 10 33  1  0  0  0  0 
 10  8  2  0  0  0  0 
 11 34  1  1  0  0  0 
 11 14  1  0  0  0  0 
 12 10  1  0  0  0  0 
 13 11  1  0  0  0  0 
 13 12  1  0  0  0  0 
 14  5  1  0  0  0  0 
 15 13  2  0  0  0  0 
 16  1  1  0  0  0  0 
 20  2  1  0  0  0  0 
 22  3  1  0  0  0  0 
 23  3  1  0  0  0  0 
 25  4  1  0  0  0  0 
 26  4  1  0  0  0  0 
 27  5  1  0  0  0  0 
 30  7  1  0  0  0  0 
 32  9  1  0  0  0  0 
M  END 
>  <HBA> 
2 
 
>  <HBD> 
0 
 
>  <TPSA> 
20.31 
 
>  <cid> 
7029 
 
>  <dipole> 
2.44 
 
>  <excitation_energy_1> 
3.167 
 
>  <excitation_energy_2> 
3.767 
 
>  <excitation_energy_3> 
4.595 
 
>  <excitation_energy_4> 
4.751 
 
>  <homo_energy> 
-5.663 
 
>  <homo_lumo_gap> 
4.185 
 
>  <logP> 
2.6 
 
>  <lumo_energy> 
-1.478 
 
>  <melting_point> 
37.53 
 
>  <molecular_refractivity> 
63.57 
 
>  <oscillator_strength_1> 
0.0057 
 
>  <oscillator_strength_2> 
0.0027 
 
>  <oscillator_strength_3> 
0.0098 
 
>  <oscillator_strength_4> 
0.0258 
 
>  <open_babel_can_smiles> 
CCN([C@H](C(=O)c1ccccc1)C)CC 
 
>  <mulliken_charges> 
34 
1   -0.433415 
2   -0.448169 
3   -0.447672 
4   -0.148789 
5   -0.114429 
6   -0.117926 
7   -0.134848 
8   -0.13947 
9   -0.155643 
10   -0.166698 
11   -0.057365 
12   0.071913 
13   0.405933 
14   -0.388511 
15   -0.472047 
16   0.134426 
17   0.156422 
18   0.146007 
19   0.142325 
20   0.153177 
21   0.15235 
22   0.150949 
23   0.166284 
24   0.140821 
25   0.164278 
26   0.128905 
27   0.12021 
28   0.132994 
29   0.135398 
30   0.136019 
31   0.133529 
32   0.160811 
33   0.155287 
34   0.136948 
 
>  <lowdin_charges> 
34 
1   -0.450052 
2   -0.45129 
3   -0.458768 
4   -0.202102 
5   -0.196217 
6   -0.141469 
7   -0.155705 
8   -0.159481 
9   -0.129318 
10   -0.141883 
11   -0.089269 
12   -0.048684 
13   0.156555 
14   -0.189982 
15   -0.24092 
16   0.146939 
17   0.153882 
18   0.149148 
19   0.152925 
20   0.151504 
21   0.152574 
22   0.159363 
23   0.161767 
24   0.149141 
25   0.155623 
26   0.132875 
27   0.121103 
28   0.140279 
29   0.161127 
30   0.159176 
31   0.158665 
32   0.174284 
33   0.169082 
34   0.149128 
 
$$$$ 
 
