PCCDB-ID:  16918 
public computational chemistry database (PCCDB) project, http://pccdb.org 
 
 28 29  0  0  0  0  0  0  0  0999 V2000 
   -1.3266   -0.0654    0.1669 C   0  0  0  0  0  0  0  0  0  0  0  0 
   -0.6318   -3.7272    0.0691 C   0  0  0  0  0  0  0  0  0  0  0  0 
   -0.6950    1.1710    0.2996 C   0  0  0  0  0  0  0  0  0  0  0  0 
   -1.2622   -4.9628   -0.0750 C   0  0  0  0  0  0  0  0  0  0  0  0 
    0.7815   -1.0785   -0.3730 C   0  0  0  0  0  0  0  0  0  0  0  0 
   -2.5612   -2.6409   -0.8579 C   0  0  0  0  0  0  0  0  0  0  0  0 
   -0.6051   -1.2189   -0.1721 C   0  0  0  0  0  0  0  0  0  0  0  0 
   -1.2648   -2.5374   -0.3181 C   0  0  0  0  0  0  0  0  0  0  0  0 
    0.6829    1.3096    0.1037 C   0  0  0  0  0  0  0  0  0  0  0  0 
   -2.5517   -5.0651   -0.6072 C   0  0  0  0  0  0  0  0  0  0  0  0 
    1.4110    0.1513   -0.2378 C   0  0  0  0  0  0  0  0  0  0  0  0 
   -3.1903   -3.8703   -0.9982 C   0  0  0  0  0  0  0  0  0  0  0  0 
    1.3579    2.5197    0.2847 N   0  0  0  0  0  0  0  0  0  0  0  0 
   -3.2361   -6.2789   -0.7121 N   0  0  0  0  0  0  0  0  0  0  0  0 
    2.7606    0.3357   -0.4495 O   0  0  0  0  0  0  0  0  0  0  0  0 
   -4.4477   -4.0169   -1.5438 O   0  0  0  0  0  0  0  0  0  0  0  0 
   -2.3926   -0.1365    0.3620 H   0  0  0  0  0  0  0  0  0  0  0  0 
    0.3557   -3.6882    0.5196 H   0  0  0  0  0  0  0  0  0  0  0  0 
   -1.2756    2.0470    0.5807 H   0  0  0  0  0  0  0  0  0  0  0  0 
   -0.7556   -5.8691    0.2498 H   0  0  0  0  0  0  0  0  0  0  0  0 
    1.3711   -1.9424   -0.6750 H   0  0  0  0  0  0  0  0  0  0  0  0 
   -3.0710   -1.7446   -1.2070 H   0  0  0  0  0  0  0  0  0  0  0  0 
    0.8005    3.3435    0.0954 H   0  0  0  0  0  0  0  0  0  0  0  0 
    2.2576    2.5545   -0.1789 H   0  0  0  0  0  0  0  0  0  0  0  0 
   -2.6402   -7.0868   -0.8433 H   0  0  0  0  0  0  0  0  0  0  0  0 
   -3.9990   -6.2569   -1.3778 H   0  0  0  0  0  0  0  0  0  0  0  0 
    3.1559   -0.5129   -0.6996 H   0  0  0  0  0  0  0  0  0  0  0  0 
   -4.7821   -3.1430   -1.7964 H   0  0  0  0  0  0  0  0  0  0  0  0 
  1  3  1  0  0  0  0 
  1 17  1  0  0  0  0 
  2 18  1  0  0  0  0 
  3 19  1  0  0  0  0 
  4  2  1  0  0  0  0 
  4 20  1  0  0  0  0 
  5 11  2  0  0  0  0 
  5  7  1  0  0  0  0 
  6  8  1  0  0  0  0 
  7  1  2  0  0  0  0 
  8  7  1  0  0  0  0 
  8  2  2  0  0  0  0 
  9 13  1  0  0  0  0 
  9  3  2  0  0  0  0 
 10  4  2  0  0  0  0 
 11  9  1  0  0  0  0 
 12  6  2  0  0  0  0 
 12 10  1  0  0  0  0 
 14 10  1  0  0  0  0 
 15 11  1  0  0  0  0 
 16 12  1  0  0  0  0 
 21  5  1  0  0  0  0 
 22  6  1  0  0  0  0 
 23 13  1  0  0  0  0 
 24 13  1  0  0  0  0 
 25 14  1  0  0  0  0 
 26 14  1  0  0  0  0 
 27 15  1  0  0  0  0 
 28 16  1  0  0  0  0 
M  END 
>  <HBA> 
4 
 
>  <HBD> 
4 
 
>  <TPSA> 
92.5 
 
>  <cid> 
16918 
 
>  <dipole> 
2.77 
 
>  <excitation_energy_1> 
4.03 
 
>  <excitation_energy_2> 
4.127 
 
>  <excitation_energy_3> 
4.183 
 
>  <excitation_energy_4> 
4.208 
 
>  <homo_energy> 
-4.637 
 
>  <homo_lumo_gap> 
4.577 
 
>  <logP> 
3.092 
 
>  <lumo_energy> 
-0.06 
 
>  <melting_point> 
222.86 
 
>  <molecular_refractivity> 
64.73 
 
>  <oscillator_strength_1> 
0.2131 
 
>  <oscillator_strength_2> 
0.2791 
 
>  <oscillator_strength_3> 
0.0045 
 
>  <oscillator_strength_4> 
0.0007 
 
>  <open_babel_can_smiles> 
Nc1ccc(cc1O)c1ccc(c(c1)O)N 
 
>  <mulliken_charges> 
28 
1   -0.190173 
2   -0.190469 
3   -0.18998 
4   -0.189802 
5   -0.258029 
6   -0.258327 
7   0.087212 
8   0.08763 
9   0.281657 
10   0.281709 
11   0.318636 
12   0.318928 
13   -0.791683 
14   -0.791918 
15   -0.671956 
16   -0.672082 
17   0.120287 
18   0.120299 
19   0.116226 
20   0.116172 
21   0.115027 
22   0.114999 
23   0.315967 
24   0.336921 
25   0.316015 
26   0.336998 
27   0.409866 
28   0.409869 
 
>  <lowdin_charges> 
28 
1   -0.173562 
2   -0.174419 
3   -0.19309 
4   -0.193019 
5   -0.214062 
6   -0.213997 
7   -0.013998 
8   -0.014142 
9   0.031169 
10   0.030687 
11   0.072493 
12   0.07259 
13   -0.48813 
14   -0.488564 
15   -0.399454 
16   -0.398541 
17   0.153766 
18   0.154727 
19   0.154085 
20   0.153835 
21   0.153791 
22   0.153598 
23   0.27468 
24   0.28299 
25   0.274718 
26   0.283576 
27   0.359331 
28   0.358942 
 
$$$$ 
 
