PCCDB-ID:  45390 
public computational chemistry database (PCCDB) project, http://pccdb.org 
 
 31 31  0  0  0  0  0  0  0  0999 V2000 
    1.1633    0.0957   -1.4589 C   0  0  0  0  0  0  0  0  0  0  0  0 
   -0.1239   -0.2702    2.1305 C   0  0  0  0  0  0  0  0  0  0  0  0 
    0.4015    0.8735    2.7229 C   0  0  0  0  0  0  0  0  0  0  0  0 
    0.1253   -0.5132    0.7763 C   0  0  0  0  0  0  0  0  0  0  0  0 
    1.1699    1.7690    1.9727 C   0  0  0  0  0  0  0  0  0  0  0  0 
    1.7715    7.1246    0.6714 C   0  0  0  0  0  0  0  0  0  0  0  0 
    1.8318    4.6834    0.3123 C   0  0  0  0  0  0  0  0  0  0  0  0 
    2.7192    8.2956    0.9352 C   0  0  0  0  0  0  0  0  0  0  0  0 
    2.7889    3.4885    0.3026 C   0  0  0  0  0  0  0  0  0  0  0  0 
    0.8901    0.3582    0.0006 C   0  0  0  0  0  0  0  0  0  0  0  0 
    1.4161    1.5118    0.6207 C   0  0  0  0  0  0  0  0  0  0  0  0 
    2.5333    5.8753    0.7875 N   0  0  0  0  0  0  0  0  0  0  0  0 
    3.8337    8.2435    0.0672 O   0  0  0  0  0  0  0  0  0  0  0  0 
    2.1690    2.3113   -0.2033 O   0  0  0  0  0  0  0  0  0  0  0  0 
    0.7055   -0.8462   -1.7762 H   0  0  0  0  0  0  0  0  0  0  0  0 
    2.2396    0.0420   -1.6607 H   0  0  0  0  0  0  0  0  0  0  0  0 
    0.7689    0.9000   -2.0916 H   0  0  0  0  0  0  0  0  0  0  0  0 
   -0.7226   -0.9670    2.7098 H   0  0  0  0  0  0  0  0  0  0  0  0 
    0.2170    1.0834    3.7732 H   0  0  0  0  0  0  0  0  0  0  0  0 
   -0.2818   -1.4052    0.3054 H   0  0  0  0  0  0  0  0  0  0  0  0 
    1.5635    2.6583    2.4516 H   0  0  0  0  0  0  0  0  0  0  0  0 
    1.4027    7.1928   -0.3587 H   0  0  0  0  0  0  0  0  0  0  0  0 
    0.8958    7.1706    1.3434 H   0  0  0  0  0  0  0  0  0  0  0  0 
    0.9294    4.4436    0.9003 H   0  0  0  0  0  0  0  0  0  0  0  0 
    1.4997    4.8666   -0.7157 H   0  0  0  0  0  0  0  0  0  0  0  0 
    3.0333    8.2816    1.9960 H   0  0  0  0  0  0  0  0  0  0  0  0 
    2.2052    9.2476    0.7627 H   0  0  0  0  0  0  0  0  0  0  0  0 
    3.2141    3.3062    1.2992 H   0  0  0  0  0  0  0  0  0  0  0  0 
    3.6193    3.6969   -0.3771 H   0  0  0  0  0  0  0  0  0  0  0  0 
    2.7942    5.7433    1.7656 H   0  0  0  0  0  0  0  0  0  0  0  0 
    4.0545    7.2945    0.0171 H   0  0  0  0  0  0  0  0  0  0  0  0 
  1 10  1  0  0  0  0 
  2 18  1  0  0  0  0 
  2  3  1  0  0  0  0 
  3 19  1  0  0  0  0 
  4  2  2  0  0  0  0 
  5 21  1  0  0  0  0 
  5  3  2  0  0  0  0 
  6 12  1  0  0  0  0 
  6  8  1  0  0  0  0 
  6 23  1  0  0  0  0 
  7 12  1  0  0  0  0 
  7 24  1  0  0  0  0 
  8 26  1  0  0  0  0 
  9  7  1  0  0  0  0 
  9 28  1  0  0  0  0 
 10 11  2  0  0  0  0 
 10  4  1  0  0  0  0 
 11  5  1  0  0  0  0 
 12 30  1  0  0  0  0 
 13  8  1  0  0  0  0 
 14  9  1  0  0  0  0 
 14 11  1  0  0  0  0 
 15  1  1  0  0  0  0 
 16  1  1  0  0  0  0 
 17  1  1  0  0  0  0 
 20  4  1  0  0  0  0 
 22  6  1  0  0  0  0 
 25  7  1  0  0  0  0 
 27  8  1  0  0  0  0 
 29  9  1  0  0  0  0 
 31 13  1  0  0  0  0 
M  END 
>  <HBA> 
3 
 
>  <HBD> 
2 
 
>  <TPSA> 
41.49 
 
>  <cid> 
45390 
 
>  <dipole> 
2.18 
 
>  <excitation_energy_1> 
4.997 
 
>  <excitation_energy_2> 
5.159 
 
>  <excitation_energy_3> 
5.603 
 
>  <excitation_energy_4> 
5.658 
 
>  <homo_energy> 
-5.826 
 
>  <homo_lumo_gap> 
5.921 
 
>  <logP> 
1.347 
 
>  <lumo_energy> 
0.095 
 
>  <melting_point> 
57.06 
 
>  <molecular_refractivity> 
56.28 
 
>  <oscillator_strength_1> 
0.0324 
 
>  <oscillator_strength_2> 
0.0112 
 
>  <oscillator_strength_3> 
0.0019 
 
>  <oscillator_strength_4> 
0.065 
 
>  <open_babel_can_smiles> 
OCCNCCOc1ccccc1C 
 
>  <mulliken_charges> 
31 
1   -0.511053 
2   -0.128246 
3   -0.142466 
4   -0.189418 
5   -0.186346 
6   -0.146919 
7   -0.140773 
8   -0.019197 
9   -0.041664 
10   0.122047 
11   0.323567 
12   -0.587137 
13   -0.62605 
14   -0.526743 
15   0.146472 
16   0.165303 
17   0.162992 
18   0.12399 
19   0.126103 
20   0.122162 
21   0.121595 
22   0.156441 
23   0.122344 
24   0.138346 
25   0.161596 
26   0.109185 
27   0.14402 
28   0.137295 
29   0.165289 
30   0.298849 
31   0.398414 
 
>  <lowdin_charges> 
31 
1   -0.436353 
2   -0.179192 
3   -0.151713 
4   -0.15949 
5   -0.215952 
6   -0.221156 
7   -0.21669 
8   -0.135115 
9   -0.134328 
10   -0.024815 
11   0.094534 
12   -0.363578 
13   -0.472436 
14   -0.199409 
15   0.153741 
16   0.1614 
17   0.162692 
18   0.157858 
19   0.154753 
20   0.155589 
21   0.156903 
22   0.150142 
23   0.128149 
24   0.132171 
25   0.153744 
26   0.116551 
27   0.147867 
28   0.136554 
29   0.160253 
30   0.25162 
31   0.335708 
 
$$$$ 
 
