PCCDB-ID:  6776 
public computational chemistry database (PCCDB) project, http://pccdb.org 
 
 26 28  0  0  0  0  0  0  0  0999 V2000 
    3.6964    0.7208    0.0032 C   0  0  0  0  0  0  0  0  0  0  0  0 
   -3.6889   -0.6785    0.0017 C   0  0  0  0  0  0  0  0  0  0  0  0 
    2.4938    1.4147    0.0005 C   0  0  0  0  0  0  0  0  0  0  0  0 
   -2.4863   -1.3724   -0.0004 C   0  0  0  0  0  0  0  0  0  0  0  0 
    2.4828   -1.3821    0.0005 C   0  0  0  0  0  0  0  0  0  0  0  0 
   -2.4753    1.4245   -0.0002 C   0  0  0  0  0  0  0  0  0  0  0  0 
    3.6935   -0.6833    0.0028 C   0  0  0  0  0  0  0  0  0  0  0  0 
   -3.6859    0.7257    0.0018 C   0  0  0  0  0  0  0  0  0  0  0  0 
    1.2727    0.7292   -0.0026 C   0  0  0  0  0  0  0  0  0  0  0  0 
   -1.2652   -0.6868   -0.0027 C   0  0  0  0  0  0  0  0  0  0  0  0 
    1.2789   -0.6821   -0.0026 C   0  0  0  0  0  0  0  0  0  0  0  0 
   -1.2714    0.7244   -0.0025 C   0  0  0  0  0  0  0  0  0  0  0  0 
    0.0076    1.5024   -0.0047 C   0  0  0  0  0  0  0  0  0  0  0  0 
   -0.0000   -1.4601   -0.0048 C   0  0  0  0  0  0  0  0  0  0  0  0 
    4.8389   -1.4169    0.0056 O   0  0  0  0  0  0  0  0  0  0  0  0 
   -4.8313    1.4593    0.0038 O   0  0  0  0  0  0  0  0  0  0  0  0 
    0.0013    2.7298   -0.0076 O   0  0  0  0  0  0  0  0  0  0  0  0 
    0.0062   -2.6874   -0.0081 O   0  0  0  0  0  0  0  0  0  0  0  0 
    4.6411    1.2616    0.0051 H   0  0  0  0  0  0  0  0  0  0  0  0 
   -4.6336   -1.2192    0.0023 H   0  0  0  0  0  0  0  0  0  0  0  0 
    2.4753    2.4997    0.0020 H   0  0  0  0  0  0  0  0  0  0  0  0 
   -2.4678   -2.4573   -0.0002 H   0  0  0  0  0  0  0  0  0  0  0  0 
    2.4746   -2.4662    0.0018 H   0  0  0  0  0  0  0  0  0  0  0  0 
   -2.4671    2.5086   -0.0001 H   0  0  0  0  0  0  0  0  0  0  0  0 
    5.6038   -0.8198    0.0058 H   0  0  0  0  0  0  0  0  0  0  0  0 
   -5.5963    0.8622    0.0030 H   0  0  0  0  0  0  0  0  0  0  0  0 
  1 19  1  0  0  0  0 
  2  8  1  0  0  0  0 
  2 20  1  0  0  0  0 
  3 21  1  0  0  0  0 
  3  1  2  0  0  0  0 
  4 22  1  0  0  0  0 
  4  2  2  0  0  0  0 
  5 23  1  0  0  0  0 
  5  7  2  0  0  0  0 
  6 24  1  0  0  0  0 
  6  8  2  0  0  0  0 
  7  1  1  0  0  0  0 
  7 15  1  0  0  0  0 
  8 16  1  0  0  0  0 
  9  3  1  0  0  0  0 
 10 12  2  0  0  0  0 
 10  4  1  0  0  0  0 
 11  9  2  0  0  0  0 
 11  5  1  0  0  0  0 
 12  6  1  0  0  0  0 
 13  9  1  0  0  0  0 
 13 12  1  0  0  0  0 
 14 10  1  0  0  0  0 
 14 11  1  0  0  0  0 
 15 25  1  0  0  0  0 
 17 13  2  0  0  0  0 
 18 14  2  0  0  0  0 
 26 16  1  0  0  0  0 
M  END 
>  <HBA> 
4 
 
>  <HBD> 
2 
 
>  <TPSA> 
74.6 
 
>  <cid> 
6776 
 
>  <dipole> 
0.02 
 
>  <excitation_energy_1> 
3.033 
 
>  <excitation_energy_2> 
3.205 
 
>  <excitation_energy_3> 
3.278 
 
>  <excitation_energy_4> 
3.619 
 
>  <homo_energy> 
-6.438 
 
>  <homo_lumo_gap> 
3.861 
 
>  <logP> 
1.873 
 
>  <lumo_energy> 
-2.577 
 
>  <melting_point> 
204.83 
 
>  <molecular_refractivity> 
63.8 
 
>  <oscillator_strength_1> 
0.0 
 
>  <oscillator_strength_2> 
0.0 
 
>  <oscillator_strength_3> 
0.0 
 
>  <oscillator_strength_4> 
0.1552 
 
>  <open_babel_can_smiles> 
Oc1ccc2c(c1)C(=O)c1c(C2=O)cc(cc1)O 
 
>  <mulliken_charges> 
26 
1   -0.188479 
2   -0.188471 
3   -0.177545 
4   -0.177551 
5   -0.220122 
6   -0.220112 
7   0.368435 
8   0.368435 
9   0.04379 
10   0.043841 
11   0.051051 
12   0.050998 
13   0.343259 
14   0.343214 
15   -0.630015 
16   -0.630014 
17   -0.484778 
18   -0.484776 
19   0.133326 
20   0.133325 
21   0.170509 
22   0.170509 
23   0.176966 
24   0.176967 
25   0.413619 
26   0.413619 
 
>  <lowdin_charges> 
26 
1   -0.198885 
2   -0.198885 
3   -0.112157 
4   -0.112158 
5   -0.155529 
6   -0.155529 
7   0.116064 
8   0.116064 
9   -0.059131 
10   -0.05913 
11   -0.022924 
12   -0.022925 
13   0.150043 
14   0.150042 
15   -0.359638 
16   -0.359638 
17   -0.246601 
18   -0.246601 
19   0.160283 
20   0.160283 
21   0.178975 
22   0.178975 
23   0.186701 
24   0.186701 
25   0.3628 
26   0.3628 
 
$$$$ 
 
