PCCDB-ID:  54364 
public computational chemistry database (PCCDB) project, http://pccdb.org 
 
 34 34  0  0  0  0  0  0  0  0999 V2000 
    0.5292   -1.2576   -3.4249 C   0  0  0  0  0  0  0  0  0  0  0  0 
    1.5182   -0.5002   -2.5256 C   0  0  0  0  0  0  0  0  0  0  0  0 
   -0.7067   -0.4026   -3.7418 C   0  0  0  0  0  0  0  0  0  0  0  0 
    2.7869    3.8271   -3.4262 C   0  0  0  0  0  0  0  0  0  0  0  0 
    1.9793    3.1889   -2.2898 C   0  0  0  0  0  0  0  0  0  0  0  0 
    0.8433   -0.0146   -1.2305 C   0  0  0  0  0  0  0  0  0  0  0  0 
   -1.3908    0.0909   -2.4549 C   0  0  0  0  0  0  0  0  0  0  0  0 
    4.1984    4.2418   -3.0056 C   0  0  0  0  0  0  0  0  0  0  0  0 
    0.5632    2.7791   -2.7226 C   0  0  0  0  0  0  0  0  0  0  0  0 
   -0.4586    0.7949   -1.4260 C   0  0  0  0  0  0  0  0  0  0  0  0 
    4.9042    4.8866   -4.1207 N   0  0  0  0  0  0  0  0  0  0  0  0 
   -0.2383    2.2397   -1.6144 N   0  0  0  0  0  0  0  0  0  0  0  0 
    0.2084   -2.1773   -2.9124 H   0  0  0  0  0  0  0  0  0  0  0  0 
    1.0224   -1.5740   -4.3530 H   0  0  0  0  0  0  0  0  0  0  0  0 
    1.9422    0.3441   -3.0840 H   0  0  0  0  0  0  0  0  0  0  0  0 
    2.3647   -1.1499   -2.2675 H   0  0  0  0  0  0  0  0  0  0  0  0 
   -1.4238   -0.9846   -4.3358 H   0  0  0  0  0  0  0  0  0  0  0  0 
   -0.4122    0.4484   -4.3692 H   0  0  0  0  0  0  0  0  0  0  0  0 
    2.2681    4.7133   -3.8149 H   0  0  0  0  0  0  0  0  0  0  0  0 
    2.8585    3.1198   -4.2679 H   0  0  0  0  0  0  0  0  0  0  0  0 
    1.8900    3.8880   -1.4479 H   0  0  0  0  0  0  0  0  0  0  0  0 
    2.5142    2.3117   -1.9030 H   0  0  0  0  0  0  0  0  0  0  0  0 
    1.5382    0.5710   -0.6181 H   0  0  0  0  0  0  0  0  0  0  0  0 
    0.5835   -0.9053   -0.6407 H   0  0  0  0  0  0  0  0  0  0  0  0 
   -1.8362   -0.7819   -1.9529 H   0  0  0  0  0  0  0  0  0  0  0  0 
   -2.2271    0.7609   -2.6982 H   0  0  0  0  0  0  0  0  0  0  0  0 
    4.7247    3.3610   -2.5912 H   0  0  0  0  0  0  0  0  0  0  0  0 
    4.1306    4.9735   -2.1901 H   0  0  0  0  0  0  0  0  0  0  0  0 
    0.6271    2.0958   -3.5808 H   0  0  0  0  0  0  0  0  0  0  0  0 
    0.0530    3.6766   -3.0973 H   0  0  0  0  0  0  0  0  0  0  0  0 
   -0.9893    0.7509   -0.4646 H   0  0  0  0  0  0  0  0  0  0  0  0 
    5.0713    4.2002   -4.8564 H   0  0  0  0  0  0  0  0  0  0  0  0 
    5.8263    5.1925   -3.8129 H   0  0  0  0  0  0  0  0  0  0  0  0 
   -1.1474    2.6918   -1.6074 H   0  0  0  0  0  0  0  0  0  0  0  0 
  1 13  1  0  0  0  0 
  1  2  1  0  0  0  0 
  2 16  1  0  0  0  0 
  2  6  1  0  0  0  0 
  3  1  1  0  0  0  0 
  3  7  1  0  0  0  0 
  4  8  1  0  0  0  0 
  4  5  1  0  0  0  0 
  5 22  1  0  0  0  0 
  5 21  1  0  0  0  0 
  6 24  1  0  0  0  0 
  6 23  1  0  0  0  0 
  7 25  1  0  0  0  0 
  7 10  1  0  0  0  0 
  8 27  1  0  0  0  0 
  8 28  1  0  0  0  0 
  9  5  1  0  0  0  0 
  9 12  1  0  0  0  0 
 10  6  1  0  0  0  0 
 10 31  1  0  0  0  0 
 11 33  1  0  0  0  0 
 11  8  1  0  0  0  0 
 12 34  1  0  0  0  0 
 12 10  1  0  0  0  0 
 14  1  1  0  0  0  0 
 15  2  1  0  0  0  0 
 17  3  1  0  0  0  0 
 18  3  1  0  0  0  0 
 19  4  1  0  0  0  0 
 20  4  1  0  0  0  0 
 26  7  1  0  0  0  0 
 29  9  1  0  0  0  0 
 30  9  1  0  0  0  0 
 32 11  1  0  0  0  0 
M  END 
>  <HBA> 
2 
 
>  <HBD> 
2 
 
>  <TPSA> 
38.05 
 
>  <cid> 
54364 
 
>  <dipole> 
1.25 
 
>  <excitation_energy_1> 
4.881 
 
>  <excitation_energy_2> 
5.308 
 
>  <excitation_energy_3> 
5.418 
 
>  <excitation_energy_4> 
5.537 
 
>  <homo_energy> 
-5.508 
 
>  <homo_lumo_gap> 
7.431 
 
>  <logP> 
2.739 
 
>  <lumo_energy> 
1.924 
 
>  <melting_point> 
74.79 
 
>  <molecular_refractivity> 
53.58 
 
>  <oscillator_strength_1> 
0.0132 
 
>  <oscillator_strength_2> 
0.0017 
 
>  <oscillator_strength_3> 
0.0094 
 
>  <oscillator_strength_4> 
0.0147 
 
>  <open_babel_can_smiles> 
NCCCCNC1CCCCC1 
 
>  <mulliken_charges> 
34 
1   -0.256005 
2   -0.266263 
3   -0.261596 
4   -0.255329 
5   -0.242394 
6   -0.269677 
7   -0.264925 
8   -0.13282 
9   -0.140707 
10   0.039838 
11   -0.715907 
12   -0.565911 
13   0.125513 
14   0.128079 
15   0.137285 
16   0.128883 
17   0.128789 
18   0.13729 
19   0.144069 
20   0.118931 
21   0.135298 
22   0.134341 
23   0.145026 
24   0.127841 
25   0.123904 
26   0.118623 
27   0.109184 
28   0.137944 
29   0.129142 
30   0.125973 
31   0.122298 
32   0.289232 
33   0.293367 
34   0.290685 
 
>  <lowdin_charges> 
34 
1   -0.278394 
2   -0.284915 
3   -0.284309 
4   -0.282005 
5   -0.286456 
6   -0.287267 
7   -0.296819 
8   -0.205479 
9   -0.208878 
10   -0.06524 
11   -0.559212 
12   -0.369531 
13   0.136219 
14   0.142626 
15   0.141593 
16   0.143681 
17   0.144049 
18   0.139975 
19   0.147466 
20   0.133072 
21   0.144473 
22   0.140847 
23   0.151964 
24   0.143341 
25   0.140045 
26   0.138675 
27   0.115393 
28   0.141416 
29   0.128089 
30   0.139878 
31   0.14019 
32   0.25034 
33   0.25223 
34   0.252944 
 
$$$$ 
 
