PCCDB-ID:  62764 
public computational chemistry database (PCCDB) project, http://pccdb.org 
 
 37 39  0  0  0  0  0  0  0  0999 V2000 
    0.3971    1.2650    0.0458 C   0  0  0  0  0  0  0  0  0  0  0  0 
    1.2967    0.0322    0.2031 C   0  0  0  0  0  0  0  0  0  0  0  0 
   -1.0215    0.9743    0.5523 C   0  0  0  0  0  0  0  0  0  0  0  0 
   -1.6300   -3.0064    3.3949 C   0  0  0  0  0  0  0  0  0  0  0  0 
   -0.0966   -2.9575    3.4837 C   0  0  0  0  0  0  0  0  0  0  0  0 
   -2.8779   -4.0801   -1.8831 C   0  0  0  0  0  0  0  0  0  0  0  0 
   -2.6430   -2.8531   -1.1907 C   0  0  0  0  0  0  0  0  0  0  0  0 
    0.6754   -1.2051   -0.4609 C   0  0  0  0  0  0  0  0  0  0  0  0 
   -1.6190   -0.2649   -0.1289 C   0  0  0  0  0  0  0  0  0  0  0  0 
   -1.9681   -2.0742    2.2094 C   0  0  0  0  0  0  0  0  0  0  0  0 
    0.3057   -2.7966    2.0162 C   0  0  0  0  0  0  0  0  0  0  0  0 
   -1.7595   -4.8582   -1.9738 C   0  0  0  0  0  0  0  0  0  0  0  0 
   -1.3509   -2.6907   -0.7496 C   0  0  0  0  0  0  0  0  0  0  0  0 
   -0.7481   -1.5390    0.0640 C   0  0  0  0  0  0  0  0  0  0  0  0 
   -0.6865   -1.8420    1.5119 N   0  0  0  0  0  0  0  0  0  0  0  0 
   -0.4008   -4.0981   -1.2097 S   0  0  0  0  0  0  0  0  0  0  0  0 
    0.3524    1.5480   -1.0168 H   0  0  0  0  0  0  0  0  0  0  0  0 
    0.8268    2.1222    0.5798 H   0  0  0  0  0  0  0  0  0  0  0  0 
    1.4591   -0.1634    1.2701 H   0  0  0  0  0  0  0  0  0  0  0  0 
    2.2831    0.2214   -0.2399 H   0  0  0  0  0  0  0  0  0  0  0  0 
   -1.6759    1.8368    0.3713 H   0  0  0  0  0  0  0  0  0  0  0  0 
   -0.9934    0.8128    1.6366 H   0  0  0  0  0  0  0  0  0  0  0  0 
   -2.1269   -2.7033    4.3219 H   0  0  0  0  0  0  0  0  0  0  0  0 
   -1.9535   -4.0293    3.1694 H   0  0  0  0  0  0  0  0  0  0  0  0 
    0.3381   -3.8493    3.9468 H   0  0  0  0  0  0  0  0  0  0  0  0 
    0.2300   -2.0807    4.0550 H   0  0  0  0  0  0  0  0  0  0  0  0 
   -3.8400   -4.3621   -2.2978 H   0  0  0  0  0  0  0  0  0  0  0  0 
   -3.4148   -2.1068   -1.0422 H   0  0  0  0  0  0  0  0  0  0  0  0 
    1.3388   -2.0693   -0.3397 H   0  0  0  0  0  0  0  0  0  0  0  0 
    0.5924   -1.0366   -1.5423 H   0  0  0  0  0  0  0  0  0  0  0  0 
   -1.7138   -0.0826   -1.2072 H   0  0  0  0  0  0  0  0  0  0  0  0 
   -2.6332   -0.4390    0.2463 H   0  0  0  0  0  0  0  0  0  0  0  0 
   -2.3845   -1.1180    2.5548 H   0  0  0  0  0  0  0  0  0  0  0  0 
   -2.7192   -2.5405    1.5552 H   0  0  0  0  0  0  0  0  0  0  0  0 
    0.2739   -3.7769    1.5069 H   0  0  0  0  0  0  0  0  0  0  0  0 
    1.3207   -2.4001    1.9066 H   0  0  0  0  0  0  0  0  0  0  0  0 
   -1.6477   -5.8274   -2.4413 H   0  0  0  0  0  0  0  0  0  0  0  0 
  1  2  1  0  0  0  0 
  1  3  1  0  0  0  0 
  1 18  1  0  0  0  0 
  2 19  1  0  0  0  0 
  3 22  1  0  0  0  0 
  4  5  1  0  0  0  0 
  4 23  1  0  0  0  0 
  5 25  1  0  0  0  0 
  5 26  1  0  0  0  0 
  6  7  1  0  0  0  0 
  7 28  1  0  0  0  0 
  7 13  2  0  0  0  0 
  8 29  1  0  0  0  0 
  8 14  1  0  0  0  0 
  8  2  1  0  0  0  0 
  9 14  1  0  0  0  0 
  9 32  1  0  0  0  0 
  9  3  1  0  0  0  0 
 10 33  1  0  0  0  0 
 10  4  1  0  0  0  0 
 11  5  1  0  0  0  0 
 12  6  2  0  0  0  0 
 12 16  1  0  0  0  0 
 13 14  1  0  0  0  0 
 14 15  1  0  0  0  0 
 15 11  1  0  0  0  0 
 15 10  1  0  0  0  0 
 16 13  1  0  0  0  0 
 17  1  1  0  0  0  0 
 20  2  1  0  0  0  0 
 21  3  1  0  0  0  0 
 24  4  1  0  0  0  0 
 27  6  1  0  0  0  0 
 30  8  1  0  0  0  0 
 31  9  1  0  0  0  0 
 34 10  1  0  0  0  0 
 35 11  1  0  0  0  0 
 36 11  1  0  0  0  0 
 37 12  1  0  0  0  0 
M  END 
>  <HBA> 
2 
 
>  <HBD> 
0 
 
>  <TPSA> 
31.48 
 
>  <cid> 
62764 
 
>  <dipole> 
0.63 
 
>  <excitation_energy_1> 
4.365 
 
>  <excitation_energy_2> 
4.822 
 
>  <excitation_energy_3> 
5.161 
 
>  <excitation_energy_4> 
5.262 
 
>  <homo_energy> 
-5.342 
 
>  <homo_lumo_gap> 
5.249 
 
>  <logP> 
3.941 
 
>  <lumo_energy> 
-0.093 
 
>  <melting_point> 
55.14 
 
>  <molecular_refractivity> 
75.01 
 
>  <oscillator_strength_1> 
0.0465 
 
>  <oscillator_strength_2> 
0.0046 
 
>  <oscillator_strength_3> 
0.0008 
 
>  <oscillator_strength_4> 
0.0024 
 
>  <open_babel_can_smiles> 
C1CCC(CC1)(N1CCCC1)c1cccs1 
 
>  <mulliken_charges> 
37 
1   -0.25921 
2   -0.257327 
3   -0.254558 
4   -0.302511 
5   -0.277255 
6   -0.10529 
7   -0.128233 
8   -0.304542 
9   -0.283254 
10   -0.107824 
11   -0.122134 
12   -0.34725 
13   -0.146453 
14   0.184863 
15   -0.42647 
16   0.231227 
17   0.124831 
18   0.128706 
19   0.145184 
20   0.128163 
21   0.125482 
22   0.147126 
23   0.139475 
24   0.144803 
25   0.136409 
26   0.142974 
27   0.136259 
28   0.134179 
29   0.147833 
30   0.144197 
31   0.137025 
32   0.138343 
33   0.132296 
34   0.134369 
35   0.132897 
36   0.13822 
37   0.167447 
 
>  <lowdin_charges> 
37 
1   -0.275406 
2   -0.276582 
3   -0.27678 
4   -0.28418 
5   -0.281369 
6   -0.183995 
7   -0.205042 
8   -0.28154 
9   -0.276295 
10   -0.207372 
11   -0.204696 
12   -0.325941 
13   -0.164387 
14   0.069472 
15   -0.192932 
16   0.290147 
17   0.133942 
18   0.143547 
19   0.144922 
20   0.142649 
21   0.14262 
22   0.146173 
23   0.148365 
24   0.145974 
25   0.14785 
26   0.146357 
27   0.162803 
28   0.163636 
29   0.150985 
30   0.148329 
31   0.14464 
32   0.14554 
33   0.133852 
34   0.137084 
35   0.126768 
36   0.14125 
37   0.179614 
 
$$$$ 
 
