PCCDB-ID:  17727 
public computational chemistry database (PCCDB) project, http://pccdb.org 
 
 42 41  0  0  0  0  0  0  0  0999 V2000 
    0.0865    0.9809   -0.6590 C   0  0  0  0  0  0  0  0  0  0  0  0 
    0.1678    0.0940    0.5926 C   0  0  0  0  0  0  0  0  0  0  0  0 
    1.4104    1.1835   -1.4198 C   0  0  0  0  0  0  0  0  0  0  0  0 
   -1.1555   -0.0272    1.3727 C   0  0  0  0  0  0  0  0  0  0  0  0 
    2.0385   -0.0921   -2.0304 C   0  0  0  0  0  0  0  0  0  0  0  0 
   -1.5660    1.2494    2.1216 C   0  0  0  0  0  0  0  0  0  0  0  0 
    3.1144   -0.7830   -1.1670 C   0  0  0  0  0  0  0  0  0  0  0  0 
   -2.9230    1.1904    2.8466 C   0  0  0  0  0  0  0  0  0  0  0  0 
    4.4557   -0.0358   -1.0249 C   0  0  0  0  0  0  0  0  0  0  0  0 
   -3.0299    0.1596    3.9943 C   0  0  0  0  0  0  0  0  0  0  0  0 
    5.4001   -0.0996   -2.2336 C   0  0  0  0  0  0  0  0  0  0  0  0 
   -3.6506   -1.1926    3.5965 C   0  0  0  0  0  0  0  0  0  0  0  0 
    4.8919    0.6544   -3.3889 N   0  0  0  0  0  0  0  0  0  0  0  0 
   -3.7897   -2.1760    4.6757 N   0  0  0  0  0  0  0  0  0  0  0  0 
   -0.3006    1.9706   -0.3809 H   0  0  0  0  0  0  0  0  0  0  0  0 
   -0.6555    0.5491   -1.3478 H   0  0  0  0  0  0  0  0  0  0  0  0 
    0.9491    0.4791    1.2657 H   0  0  0  0  0  0  0  0  0  0  0  0 
    0.4894   -0.9131    0.2981 H   0  0  0  0  0  0  0  0  0  0  0  0 
    2.1328    1.6787   -0.7546 H   0  0  0  0  0  0  0  0  0  0  0  0 
    1.2158    1.9026   -2.2267 H   0  0  0  0  0  0  0  0  0  0  0  0 
   -1.0586   -0.8512    2.0918 H   0  0  0  0  0  0  0  0  0  0  0  0 
   -1.9587   -0.3201    0.6798 H   0  0  0  0  0  0  0  0  0  0  0  0 
    2.4952    0.1505   -2.9942 H   0  0  0  0  0  0  0  0  0  0  0  0 
    1.2369   -0.8162   -2.2371 H   0  0  0  0  0  0  0  0  0  0  0  0 
   -1.5963    2.0908    1.4169 H   0  0  0  0  0  0  0  0  0  0  0  0 
   -0.7826    1.4973    2.8539 H   0  0  0  0  0  0  0  0  0  0  0  0 
    3.3205   -1.7767   -1.5908 H   0  0  0  0  0  0  0  0  0  0  0  0 
    2.7165   -0.9638   -0.1601 H   0  0  0  0  0  0  0  0  0  0  0  0 
   -3.7188    0.9992    2.1110 H   0  0  0  0  0  0  0  0  0  0  0  0 
   -3.1270    2.1914    3.2482 H   0  0  0  0  0  0  0  0  0  0  0  0 
    5.0008   -0.4617   -0.1712 H   0  0  0  0  0  0  0  0  0  0  0  0 
    4.2795    1.0186   -0.7634 H   0  0  0  0  0  0  0  0  0  0  0  0 
   -3.6435    0.5794    4.8046 H   0  0  0  0  0  0  0  0  0  0  0  0 
   -2.0350   -0.0142    4.4323 H   0  0  0  0  0  0  0  0  0  0  0  0 
    5.5083   -1.1465   -2.5472 H   0  0  0  0  0  0  0  0  0  0  0  0 
    6.4028    0.2326   -1.9054 H   0  0  0  0  0  0  0  0  0  0  0  0 
   -3.0645   -1.6611    2.7973 H   0  0  0  0  0  0  0  0  0  0  0  0 
   -4.6503   -1.0170    3.1767 H   0  0  0  0  0  0  0  0  0  0  0  0 
    4.8683    1.6478   -3.1592 H   0  0  0  0  0  0  0  0  0  0  0  0 
    5.5399    0.5626   -4.1702 H   0  0  0  0  0  0  0  0  0  0  0  0 
   -2.8723   -2.3733    5.0756 H   0  0  0  0  0  0  0  0  0  0  0  0 
   -4.3384   -1.7717    5.4349 H   0  0  0  0  0  0  0  0  0  0  0  0 
  1 15  1  0  0  0  0 
  1  2  1  0  0  0  0 
  2 17  1  0  0  0  0 
  2  4  1  0  0  0  0 
  3 19  1  0  0  0  0 
  3  1  1  0  0  0  0 
  4 21  1  0  0  0  0 
  4  6  1  0  0  0  0 
  5  3  1  0  0  0  0 
  5  7  1  0  0  0  0 
  6  8  1  0  0  0  0 
  6 26  1  0  0  0  0 
  7  9  1  0  0  0  0 
  7 28  1  0  0  0  0 
  8 30  1  0  0  0  0 
  8 10  1  0  0  0  0 
  9 32  1  0  0  0  0 
  9 31  1  0  0  0  0 
 10 34  1  0  0  0  0 
 10 33  1  0  0  0  0 
 11 36  1  0  0  0  0 
 11  9  1  0  0  0  0 
 12 10  1  0  0  0  0 
 12 14  1  0  0  0  0 
 13 39  1  0  0  0  0 
 13 11  1  0  0  0  0 
 14 41  1  0  0  0  0 
 14 42  1  0  0  0  0 
 16  1  1  0  0  0  0 
 18  2  1  0  0  0  0 
 20  3  1  0  0  0  0 
 22  4  1  0  0  0  0 
 23  5  1  0  0  0  0 
 24  5  1  0  0  0  0 
 25  6  1  0  0  0  0 
 27  7  1  0  0  0  0 
 29  8  1  0  0  0  0 
 35 11  1  0  0  0  0 
 37 12  1  0  0  0  0 
 38 12  1  0  0  0  0 
 40 13  1  0  0  0  0 
M  END 
>  <HBA> 
2 
 
>  <HBD> 
2 
 
>  <TPSA> 
52.04 
 
>  <cid> 
17727 
 
>  <dipole> 
2.86 
 
>  <excitation_energy_1> 
5.504 
 
>  <excitation_energy_2> 
5.519 
 
>  <excitation_energy_3> 
6.122 
 
>  <excitation_energy_4> 
6.147 
 
>  <homo_energy> 
-6.131 
 
>  <homo_lumo_gap> 
8.253 
 
>  <logP> 
4.205 
 
>  <lumo_energy> 
2.123 
 
>  <melting_point> 
77.95 
 
>  <molecular_refractivity> 
65.21 
 
>  <oscillator_strength_1> 
0.0085 
 
>  <oscillator_strength_2> 
0.0269 
 
>  <oscillator_strength_3> 
0.002 
 
>  <oscillator_strength_4> 
0.0125 
 
>  <open_babel_can_smiles> 
NCCCCCCCCCCCCN 
 
>  <mulliken_charges> 
42 
1   -0.257733 
2   -0.255278 
3   -0.261714 
4   -0.255651 
5   -0.266525 
6   -0.257619 
7   -0.257031 
8   -0.263075 
9   -0.258049 
10   -0.260878 
11   -0.132286 
12   -0.14958 
13   -0.70812 
14   -0.705104 
15   0.127266 
16   0.126148 
17   0.122285 
18   0.136834 
19   0.12412 
20   0.126063 
21   0.130036 
22   0.126951 
23   0.176107 
24   0.118684 
25   0.133131 
26   0.125211 
27   0.123536 
28   0.130825 
29   0.130706 
30   0.129735 
31   0.128145 
32   0.126727 
33   0.1209 
34   0.122437 
35   0.137404 
36   0.110172 
37   0.149205 
38   0.138971 
39   0.292178 
40   0.296136 
41   0.289585 
42   0.289146 
 
>  <lowdin_charges> 
42 
1   -0.277535 
2   -0.279496 
3   -0.281611 
4   -0.280543 
5   -0.29177 
6   -0.277697 
7   -0.274716 
8   -0.278854 
9   -0.281996 
10   -0.298971 
11   -0.202809 
12   -0.213135 
13   -0.552988 
14   -0.55377 
15   0.1373 
16   0.137261 
17   0.136291 
18   0.142848 
19   0.136072 
20   0.142305 
21   0.140759 
22   0.138577 
23   0.162236 
24   0.136963 
25   0.141516 
26   0.136555 
27   0.138682 
28   0.138879 
29   0.140414 
30   0.143351 
31   0.14483 
32   0.13526 
33   0.137687 
34   0.13445 
35   0.138386 
36   0.115911 
37   0.145376 
38   0.139828 
39   0.248958 
40   0.254958 
41   0.249612 
42   0.250624 
 
$$$$ 
 
