PCCDB-ID:  36229 
public computational chemistry database (PCCDB) project, http://pccdb.org 
 
 19 20  0  0  0  0  0  0  0  0999 V2000 
    0.8541    0.1612    0.0878 C   0  0  0  0  0  0  0  0  0  0  0  0 
    7.0172   -0.7384    0.0280 C   0  0  0  0  0  0  0  0  0  0  0  0 
    5.8910   -1.5523    0.0580 C   0  0  0  0  0  0  0  0  0  0  0  0 
    5.6435    1.2638    0.0062 C   0  0  0  0  0  0  0  0  0  0  0  0 
    2.3389   -0.0329    0.0739 C   0  0  0  0  0  0  0  0  0  0  0  0 
    6.9102    0.6716    0.0020 C   0  0  0  0  0  0  0  0  0  0  0  0 
    4.5030    0.4540    0.0342 C   0  0  0  0  0  0  0  0  0  0  0  0 
    4.6303   -0.9544    0.0601 C   0  0  0  0  0  0  0  0  0  0  0  0 
    8.0673    1.4559   -0.0893 N   0  0  0  0  0  0  0  0  0  0  0  0 
    3.1985    0.9327    0.0439 N   0  0  0  0  0  0  0  0  0  0  0  0 
    3.0312   -1.6781    0.0963 S   0  0  0  0  0  0  0  0  0  0  0  0 
    0.6401    1.2323    0.0839 H   0  0  0  0  0  0  0  0  0  0  0  0 
    0.4010   -0.2892    0.9785 H   0  0  0  0  0  0  0  0  0  0  0  0 
    0.3845   -0.2977   -0.7901 H   0  0  0  0  0  0  0  0  0  0  0  0 
    8.0050   -1.1930    0.0197 H   0  0  0  0  0  0  0  0  0  0  0  0 
    6.0022   -2.6322    0.0801 H   0  0  0  0  0  0  0  0  0  0  0  0 
    5.5272    2.3436   -0.0150 H   0  0  0  0  0  0  0  0  0  0  0  0 
    8.8979    1.0293    0.3030 H   0  0  0  0  0  0  0  0  0  0  0  0 
    7.9573    2.4071    0.2406 H   0  0  0  0  0  0  0  0  0  0  0  0 
  1 13  1  0  0  0  0 
  2  3  2  0  0  0  0 
  3  8  1  0  0  0  0 
  3 16  1  0  0  0  0 
  4  7  1  0  0  0  0 
  5  1  1  0  0  0  0 
  5 11  1  0  0  0  0 
  6  4  2  0  0  0  0 
  6  2  1  0  0  0  0 
  7 10  1  0  0  0  0 
  7  8  2  0  0  0  0 
  8 11  1  0  0  0  0 
  9  6  1  0  0  0  0 
  9 19  1  0  0  0  0 
  9 18  1  0  0  0  0 
 10  5  2  0  0  0  0 
 12  1  1  0  0  0  0 
 14  1  1  0  0  0  0 
 15  2  1  0  0  0  0 
 17  4  1  0  0  0  0 
M  END 
>  <HBA> 
3 
 
>  <HBD> 
1 
 
>  <TPSA> 
67.15 
 
>  <cid> 
36229 
 
>  <dipole> 
1.59 
 
>  <excitation_energy_1> 
4.019 
 
>  <excitation_energy_2> 
4.553 
 
>  <excitation_energy_3> 
4.784 
 
>  <excitation_energy_4> 
4.879 
 
>  <homo_energy> 
-5.35 
 
>  <homo_lumo_gap> 
4.648 
 
>  <logP> 
2.768 
 
>  <lumo_energy> 
-0.702 
 
>  <melting_point> 
117.38 
 
>  <molecular_refractivity> 
48.99 
 
>  <oscillator_strength_1> 
0.0444 
 
>  <oscillator_strength_2> 
0.0011 
 
>  <oscillator_strength_3> 
0.002 
 
>  <oscillator_strength_4> 
0.0028 
 
>  <open_babel_can_smiles> 
Nc1ccc2c(c1)nc(s2)C 
 
>  <mulliken_charges> 
19 
1   -0.514997 
2   -0.158718 
3   -0.186417 
4   -0.206872 
5   0.12409 
6   0.300648 
7   0.278811 
8   -0.135869 
9   -0.78921 
10   -0.470575 
11   0.183723 
12   0.190192 
13   0.176122 
14   0.177262 
15   0.120802 
16   0.140814 
17   0.130457 
18   0.318647 
19   0.32109 
 
>  <lowdin_charges> 
19 
1   -0.443138 
2   -0.194858 
3   -0.14912 
4   -0.201303 
5   -0.056964 
6   0.057941 
7   0.028034 
8   -0.171212 
9   -0.489317 
10   -0.166086 
11   0.232989 
12   0.178262 
13   0.171567 
14   0.172227 
15   0.155399 
16   0.1628 
17   0.162726 
18   0.275268 
19   0.274785 
 
$$$$ 
 
