PCCDB-ID:  11907 
public computational chemistry database (PCCDB) project, http://pccdb.org 
 
 14 14  0  0  0  0  0  0  0  0999 V2000 
   -1.3847   -0.0783    0.0167 C   0  0  0  0  0  0  0  0  0  0  0  0 
   -0.6139   -1.2438    0.0229 C   0  0  0  0  0  0  0  0  0  0  0  0 
   -0.7519    1.1594   -0.0318 C   0  0  0  0  0  0  0  0  0  0  0  0 
    0.7774   -1.1759   -0.0187 C   0  0  0  0  0  0  0  0  0  0  0  0 
    1.2897    2.5264   -0.1231 C   0  0  0  0  0  0  0  0  0  0  0  0 
    0.6496    1.2475   -0.0737 C   0  0  0  0  0  0  0  0  0  0  0  0 
    1.4194    0.0651   -0.0670 C   0  0  0  0  0  0  0  0  0  0  0  0 
    1.7803    3.5805   -0.1623 N   0  0  0  0  0  0  0  0  0  0  0  0 
    2.7696    0.1997   -0.1082 O   0  0  0  0  0  0  0  0  0  0  0  0 
   -2.4679   -0.1351    0.0490 H   0  0  0  0  0  0  0  0  0  0  0  0 
   -1.0967   -2.2162    0.0606 H   0  0  0  0  0  0  0  0  0  0  0  0 
   -1.3303    2.0777   -0.0375 H   0  0  0  0  0  0  0  0  0  0  0  0 
    1.3726   -2.0867   -0.0129 H   0  0  0  0  0  0  0  0  0  0  0  0 
    3.1823   -0.6782   -0.1015 H   0  0  0  0  0  0  0  0  0  0  0  0 
  1  2  1  0  0  0  0 
  1 10  1  0  0  0  0 
  2 11  1  0  0  0  0 
  3  1  2  0  0  0  0 
  4 13  1  0  0  0  0 
  4  2  2  0  0  0  0 
  5  6  1  0  0  0  0 
  6  7  2  0  0  0  0 
  6  3  1  0  0  0  0 
  7  4  1  0  0  0  0 
  8  5  3  0  0  0  0 
  9 14  1  0  0  0  0 
  9  7  1  0  0  0  0 
 12  3  1  0  0  0  0 
M  END 
>  <HBA> 
2 
 
>  <HBD> 
1 
 
>  <TPSA> 
44.02 
 
>  <cid> 
11907 
 
>  <dipole> 
5.75 
 
>  <excitation_energy_1> 
4.668 
 
>  <excitation_energy_2> 
5.466 
 
>  <excitation_energy_3> 
5.546 
 
>  <excitation_energy_4> 
6.155 
 
>  <homo_energy> 
-6.64 
 
>  <homo_lumo_gap> 
5.336 
 
>  <logP> 
1.264 
 
>  <lumo_energy> 
-1.303 
 
>  <melting_point> 
82.03 
 
>  <molecular_refractivity> 
33.18 
 
>  <oscillator_strength_1> 
0.0833 
 
>  <oscillator_strength_2> 
0.1036 
 
>  <oscillator_strength_3> 
0.0002 
 
>  <oscillator_strength_4> 
0.0044 
 
>  <open_babel_can_smiles> 
N#Cc1ccccc1O 
 
>  <mulliken_charges> 
14 
1   -0.139717 
2   -0.120852 
3   -0.142204 
4   -0.191986 
5   0.265809 
6   0.09035 
7   0.341261 
8   -0.480841 
9   -0.623354 
10   0.143794 
11   0.146061 
12   0.161379 
13   0.133255 
14   0.417046 
 
>  <lowdin_charges> 
14 
1   -0.170899 
2   -0.126991 
3   -0.12028 
4   -0.209492 
5   -0.006687 
6   -0.052042 
7   0.122385 
8   -0.117849 
9   -0.351796 
10   0.164621 
11   0.166327 
12   0.176341 
13   0.161586 
14   0.364776 
 
$$$$ 
 
