PCCDB-ID:  37272 
public computational chemistry database (PCCDB) project, http://pccdb.org 
 
 34 33  0  0  0  0  0  0  0  0999 V2000 
    3.4551   -1.8083   -1.9392 C   0  0  0  0  0  0  0  0  0  0  0  0 
   -0.8098   -7.4378    2.3878 C   0  0  0  0  0  0  0  0  0  0  0  0 
    2.9752   -2.7279    2.1518 C   0  0  0  0  0  0  0  0  0  0  0  0 
    1.9823   -3.4946    3.0410 C   0  0  0  0  0  0  0  0  0  0  0  0 
    2.3366   -1.6380    1.2805 C   0  0  0  0  0  0  0  0  0  0  0  0 
    0.9860   -4.3710    2.2695 C   0  0  0  0  0  0  0  0  0  0  0  0 
    3.3503   -0.8606    0.4287 C   0  0  0  0  0  0  0  0  0  0  0  0 
    0.0694   -5.1541    3.2183 C   0  0  0  0  0  0  0  0  0  0  0  0 
    3.9998   -1.6850   -0.5953 N   0  0  0  0  0  0  0  0  0  0  0  0 
   -0.9120   -5.9933    2.5285 N   0  0  0  0  0  0  0  0  0  0  0  0 
    5.3269   -2.0065   -0.4444 N   0  0  0  0  0  0  0  0  0  0  0  0 
   -2.0831   -5.4166    2.1283 N   0  0  0  0  0  0  0  0  0  0  0  0 
    5.8414   -1.8317    0.6640 O   0  0  0  0  0  0  0  0  0  0  0  0 
    5.8942   -2.4765   -1.4342 O   0  0  0  0  0  0  0  0  0  0  0  0 
   -2.1931   -4.1931    2.2704 O   0  0  0  0  0  0  0  0  0  0  0  0 
   -2.9371   -6.1678    1.6479 O   0  0  0  0  0  0  0  0  0  0  0  0 
    2.3820   -1.6192   -1.8699 H   0  0  0  0  0  0  0  0  0  0  0  0 
    3.6188   -2.8157   -2.3249 H   0  0  0  0  0  0  0  0  0  0  0  0 
    3.9107   -1.0909   -2.6331 H   0  0  0  0  0  0  0  0  0  0  0  0 
    0.2110   -7.7198    2.6501 H   0  0  0  0  0  0  0  0  0  0  0  0 
   -1.0150   -7.7372    1.3575 H   0  0  0  0  0  0  0  0  0  0  0  0 
   -1.5153   -7.9587    3.0453 H   0  0  0  0  0  0  0  0  0  0  0  0 
    3.5112   -3.4394    1.5100 H   0  0  0  0  0  0  0  0  0  0  0  0 
    3.7391   -2.2664    2.7905 H   0  0  0  0  0  0  0  0  0  0  0  0 
    1.4275   -2.7839    3.6709 H   0  0  0  0  0  0  0  0  0  0  0  0 
    2.5583   -4.1279    3.7305 H   0  0  0  0  0  0  0  0  0  0  0  0 
    1.8159   -0.9108    1.9198 H   0  0  0  0  0  0  0  0  0  0  0  0 
    1.5708   -2.0667    0.6207 H   0  0  0  0  0  0  0  0  0  0  0  0 
    1.5315   -5.0765    1.6275 H   0  0  0  0  0  0  0  0  0  0  0  0 
    0.3543   -3.7603    1.6165 H   0  0  0  0  0  0  0  0  0  0  0  0 
    4.1382   -0.4404    1.0552 H   0  0  0  0  0  0  0  0  0  0  0  0 
    2.8519   -0.0317   -0.0890 H   0  0  0  0  0  0  0  0  0  0  0  0 
   -0.4755   -4.4687    3.8728 H   0  0  0  0  0  0  0  0  0  0  0  0 
    0.6590   -5.8250    3.8515 H   0  0  0  0  0  0  0  0  0  0  0  0 
  1 17  1  0  0  0  0 
  1  9  1  0  0  0  0 
  2 10  1  0  0  0  0 
  2 20  1  0  0  0  0 
  2 22  1  0  0  0  0 
  3 24  1  0  0  0  0 
  3  4  1  0  0  0  0 
  4 25  1  0  0  0  0 
  4 26  1  0  0  0  0 
  5 27  1  0  0  0  0 
  5  3  1  0  0  0  0 
  6  4  1  0  0  0  0 
  6  8  1  0  0  0  0 
  7 31  1  0  0  0  0 
  7  5  1  0  0  0  0 
  8 34  1  0  0  0  0 
  8 33  1  0  0  0  0 
  9 11  1  0  0  0  0 
  9  7  1  0  0  0  0 
 10  8  1  0  0  0  0 
 11 13  2  0  0  0  0 
 12 15  2  0  0  0  0 
 12 10  1  0  0  0  0 
 14 11  2  0  0  0  0 
 16 12  2  0  0  0  0 
 18  1  1  0  0  0  0 
 19  1  1  0  0  0  0 
 21  2  1  0  0  0  0 
 23  3  1  0  0  0  0 
 28  5  1  0  0  0  0 
 29  6  1  0  0  0  0 
 30  6  1  0  0  0  0 
 32  7  1  0  0  0  0 
M  END 
>  <HBA> 
2 
 
>  <HBD> 
0 
 
>  <TPSA> 
98.12 
 
>  <cid> 
37272 
 
>  <dipole> 
1.06 
 
>  <excitation_energy_1> 
4.581 
 
>  <excitation_energy_2> 
4.646 
 
>  <excitation_energy_3> 
5.537 
 
>  <excitation_energy_4> 
5.602 
 
>  <homo_energy> 
-7.233 
 
>  <homo_lumo_gap> 
6.188 
 
>  <logP> 
1.84 
 
>  <lumo_energy> 
-1.045 
 
>  <melting_point> 
38.89 
 
>  <molecular_refractivity> 
62.57 
 
>  <oscillator_strength_1> 
0.0013 
 
>  <oscillator_strength_2> 
0.0008 
 
>  <oscillator_strength_3> 
0.0597 
 
>  <oscillator_strength_4> 
0.0237 
 
>  <open_babel_can_smiles> 
CN(N(=O)=O)CCCCCCN(N(=O)=O)C 
 
>  <mulliken_charges> 
34 
1   -0.30561 
2   -0.302467 
3   -0.254443 
4   -0.266892 
5   -0.26199 
6   -0.263243 
7   -0.164658 
8   -0.137402 
9   -0.249646 
10   -0.25668 
11   0.634994 
12   0.639522 
13   -0.437043 
14   -0.430663 
15   -0.447518 
16   -0.436467 
17   0.16868 
18   0.196203 
19   0.178927 
20   0.16588 
21   0.19401 
22   0.183308 
23   0.143908 
24   0.150021 
25   0.138364 
26   0.134451 
27   0.143704 
28   0.143093 
29   0.135549 
30   0.168125 
31   0.198788 
32   0.15757 
33   0.186048 
34   0.153578 
 
>  <lowdin_charges> 
34 
1   -0.351995 
2   -0.349296 
3   -0.278562 
4   -0.278541 
5   -0.284631 
6   -0.290242 
7   -0.207431 
8   -0.203582 
9   -0.071252 
10   -0.065707 
11   0.336288 
12   0.334112 
13   -0.288225 
14   -0.282762 
15   -0.292305 
16   -0.287068 
17   0.164117 
18   0.175882 
19   0.163674 
20   0.164698 
21   0.173303 
22   0.166805 
23   0.147788 
24   0.153923 
25   0.144347 
26   0.145124 
27   0.151406 
28   0.145049 
29   0.143833 
30   0.158287 
31   0.179215 
32   0.155561 
33   0.171189 
34   0.156998 
 
$$$$ 
 
