PCCDB-ID:  69957 
public computational chemistry database (PCCDB) project, http://pccdb.org 
 
 35 34  0  0  0  0  0  0  0  0999 V2000 
    4.5931   -0.7513   -0.4676 C   0  0  0  0  0  0  0  0  0  0  0  0 
   -1.3510    2.2792    4.2239 C   0  0  0  0  0  0  0  0  0  0  0  0 
   -0.4887    1.2771    3.4456 C   0  0  0  0  0  0  0  0  0  0  0  0 
   -2.8188    1.8510    4.3461 C   0  0  0  0  0  0  0  0  0  0  0  0 
    0.9819    1.6987    3.3312 C   0  0  0  0  0  0  0  0  0  0  0  0 
   -3.6746    2.8620    5.1202 C   0  0  0  0  0  0  0  0  0  0  0  0 
    1.8366    0.7000    2.5411 C   0  0  0  0  0  0  0  0  0  0  0  0 
   -5.1457    2.4527    5.2490 C   0  0  0  0  0  0  0  0  0  0  0  0 
    3.3139    1.1316    2.4450 C   0  0  0  0  0  0  0  0  0  0  0  0 
   -5.3693    1.2785    6.1982 C   0  0  0  0  0  0  0  0  0  0  0  0 
    4.1512    0.1328    1.6742 C   0  0  0  0  0  0  0  0  0  0  0  0 
   -4.5379    0.8225    6.9419 O   0  0  0  0  0  0  0  0  0  0  0  0 
   -6.6287    0.7568    6.1901 O   0  0  0  0  0  0  0  0  0  0  0  0 
    4.9441   -0.6472    2.1555 O   0  0  0  0  0  0  0  0  0  0  0  0 
    3.8808    0.1930    0.3467 O   0  0  0  0  0  0  0  0  0  0  0  0 
    4.3546   -1.7757   -0.1683 H   0  0  0  0  0  0  0  0  0  0  0  0 
    5.6723   -0.6008   -0.3773 H   0  0  0  0  0  0  0  0  0  0  0  0 
    4.2641   -0.5644   -1.4904 H   0  0  0  0  0  0  0  0  0  0  0  0 
   -1.2958    3.2634    3.7345 H   0  0  0  0  0  0  0  0  0  0  0  0 
   -0.9303    2.4151    5.2307 H   0  0  0  0  0  0  0  0  0  0  0  0 
   -0.9068    1.1427    2.4369 H   0  0  0  0  0  0  0  0  0  0  0  0 
   -0.5480    0.2933    3.9334 H   0  0  0  0  0  0  0  0  0  0  0  0 
   -2.8727    0.8773    4.8482 H   0  0  0  0  0  0  0  0  0  0  0  0 
   -3.2412    1.7118    3.3390 H   0  0  0  0  0  0  0  0  0  0  0  0 
    1.4046    1.8227    4.3389 H   0  0  0  0  0  0  0  0  0  0  0  0 
    1.0419    2.6868    2.8513 H   0  0  0  0  0  0  0  0  0  0  0  0 
   -3.6287    3.8391    4.6215 H   0  0  0  0  0  0  0  0  0  0  0  0 
   -3.2623    2.9964    6.1269 H   0  0  0  0  0  0  0  0  0  0  0  0 
    1.4310    0.5844    1.5282 H   0  0  0  0  0  0  0  0  0  0  0  0 
    1.7814   -0.2882    3.0176 H   0  0  0  0  0  0  0  0  0  0  0  0 
   -5.5653    2.2020    4.2633 H   0  0  0  0  0  0  0  0  0  0  0  0 
   -5.7446    3.2933    5.6299 H   0  0  0  0  0  0  0  0  0  0  0  0 
    3.7517    1.2215    3.4433 H   0  0  0  0  0  0  0  0  0  0  0  0 
    3.3776    2.1074    1.9485 H   0  0  0  0  0  0  0  0  0  0  0  0 
   -7.1785    1.2276    5.5419 H   0  0  0  0  0  0  0  0  0  0  0  0 
  1 17  1  0  0  0  0 
  1 16  1  0  0  0  0 
  1 15  1  0  0  0  0 
  2  4  1  0  0  0  0 
  2 20  1  0  0  0  0 
  3 22  1  0  0  0  0 
  3  2  1  0  0  0  0 
  4 23  1  0  0  0  0 
  4  6  1  0  0  0  0 
  5  3  1  0  0  0  0 
  5 25  1  0  0  0  0 
  6  8  1  0  0  0  0 
  6 28  1  0  0  0  0 
  7 30  1  0  0  0  0 
  7  5  1  0  0  0  0 
  8 32  1  0  0  0  0 
  8 10  1  0  0  0  0 
  9  7  1  0  0  0  0 
  9 33  1  0  0  0  0 
 10 12  2  0  0  0  0 
 11 14  2  0  0  0  0 
 11  9  1  0  0  0  0 
 13 10  1  0  0  0  0 
 15 11  1  0  0  0  0 
 18  1  1  0  0  0  0 
 19  2  1  0  0  0  0 
 21  3  1  0  0  0  0 
 24  4  1  0  0  0  0 
 26  5  1  0  0  0  0 
 27  6  1  0  0  0  0 
 29  7  1  0  0  0  0 
 31  8  1  0  0  0  0 
 34  9  1  0  0  0  0 
 35 13  1  0  0  0  0 
M  END 
>  <HBA> 
4 
 
>  <HBD> 
1 
 
>  <TPSA> 
63.6 
 
>  <cid> 
69957 
 
>  <dipole> 
5.75 
 
>  <excitation_energy_1> 
5.716 
 
>  <excitation_energy_2> 
5.72 
 
>  <excitation_energy_3> 
6.405 
 
>  <excitation_energy_4> 
6.728 
 
>  <homo_energy> 
-7.162 
 
>  <homo_lumo_gap> 
7.407 
 
>  <logP> 
2.365 
 
>  <lumo_energy> 
0.245 
 
>  <melting_point> 
59.72 
 
>  <molecular_refractivity> 
58.05 
 
>  <oscillator_strength_1> 
0.0039 
 
>  <oscillator_strength_2> 
0.0005 
 
>  <oscillator_strength_3> 
0.0143 
 
>  <oscillator_strength_4> 
0.0019 
 
>  <open_babel_can_smiles> 
COC(=O)CCCCCCCCC(=O)O 
 
>  <mulliken_charges> 
35 
1   -0.216984 
2   -0.255429 
3   -0.255832 
4   -0.261403 
5   -0.253916 
6   -0.248072 
7   -0.269221 
8   -0.405395 
9   -0.330451 
10   0.609106 
11   0.59623 
12   -0.438223 
13   -0.566478 
14   -0.473906 
15   -0.446236 
16   0.168695 
17   0.169762 
18   0.161407 
19   0.124723 
20   0.136395 
21   0.127267 
22   0.135959 
23   0.159538 
24   0.120202 
25   0.134589 
26   0.129448 
27   0.130565 
28   0.161291 
29   0.150113 
30   0.147468 
31   0.153525 
32   0.172801 
33   0.165658 
34   0.158618 
35   0.408188 
 
>  <lowdin_charges> 
35 
1   -0.275878 
2   -0.27162 
3   -0.272343 
4   -0.277578 
5   -0.272582 
6   -0.268964 
7   -0.267934 
8   -0.326187 
9   -0.294665 
10   0.199365 
11   0.198054 
12   -0.238796 
13   -0.362575 
14   -0.264946 
15   -0.200035 
16   0.157166 
17   0.156862 
18   0.157793 
19   0.135412 
20   0.141663 
21   0.137034 
22   0.141567 
23   0.153026 
24   0.13298 
25   0.140496 
26   0.137988 
27   0.143424 
28   0.157232 
29   0.147826 
30   0.146904 
31   0.155058 
32   0.169293 
33   0.164347 
34   0.161866 
35   0.358746 
 
$$$$ 
 
