PCCDB-ID:  12262 
public computational chemistry database (PCCDB) project, http://pccdb.org 
 
 19 18  0  0  1  0  0  0  0  0999 V2000 
    0.6767   -0.5096    1.2470 C   0  0  0  0  0  0  0  0  0  0  0  0 
    2.9715   -3.2225   -1.6394 C   0  0  0  0  0  0  0  0  0  0  0  0 
    2.4543   -0.9950   -0.5308 C   0  0  0  0  0  0  0  0  0  0  0  0 
    2.0877   -0.2154    0.7342 C   0  0  1  0  0  0  0  0  0  0  0  0 
    2.5908   -2.5112   -0.3393 C   0  0  2  0  0  0  0  0  0  0  0  0 
    2.2240    1.1672    0.3816 O   0  0  0  0  0  0  0  0  0  0  0  0 
    3.5147   -2.8300    0.7085 O   0  0  0  0  0  0  0  0  0  0  0  0 
    0.5684   -1.5558    1.5534 H   0  0  0  0  0  0  0  0  0  0  0  0 
   -0.0673   -0.2889    0.4726 H   0  0  0  0  0  0  0  0  0  0  0  0 
    0.4478    0.1097    2.1242 H   0  0  0  0  0  0  0  0  0  0  0  0 
    2.2213   -3.0550   -2.4210 H   0  0  0  0  0  0  0  0  0  0  0  0 
    3.0633   -4.2997   -1.4689 H   0  0  0  0  0  0  0  0  0  0  0  0 
    3.9339   -2.8519   -2.0181 H   0  0  0  0  0  0  0  0  0  0  0  0 
    3.4074   -0.5927   -0.9047 H   0  0  0  0  0  0  0  0  0  0  0  0 
    1.7061   -0.7871   -1.3077 H   0  0  0  0  0  0  0  0  0  0  0  0 
    2.8129   -0.4765    1.5196 H   0  0  0  0  0  0  0  0  0  0  0  0 
    1.6392   -2.9219    0.0182 H   0  0  0  0  0  0  0  0  0  0  0  0 
    1.9996    1.6903    1.1669 H   0  0  0  0  0  0  0  0  0  0  0  0 
    4.3835   -2.4908    0.4366 H   0  0  0  0  0  0  0  0  0  0  0  0 
  1  8  1  0  0  0  0 
  1 10  1  0  0  0  0 
  2 12  1  0  0  0  0 
  2  5  1  0  0  0  0 
  3  5  1  0  0  0  0 
  3  4  1  0  0  0  0 
  4  1  1  0  0  0  0 
  4 16  1  1  0  0  0 
  5 17  1  1  0  0  0 
  5  7  1  0  0  0  0 
  6  4  1  0  0  0  0 
  6 18  1  0  0  0  0 
  9  1  1  0  0  0  0 
 11  2  1  0  0  0  0 
 13  2  1  0  0  0  0 
 14  3  1  0  0  0  0 
 15  3  1  0  0  0  0 
 19  7  1  0  0  0  0 
M  END 
>  <HBA> 
2 
 
>  <HBD> 
2 
 
>  <TPSA> 
40.46 
 
>  <cid> 
12262 
 
>  <dipole> 
0.2 
 
>  <excitation_energy_1> 
6.377 
 
>  <excitation_energy_2> 
6.636 
 
>  <excitation_energy_3> 
7.017 
 
>  <excitation_energy_4> 
7.142 
 
>  <homo_energy> 
-6.972 
 
>  <homo_lumo_gap> 
8.901 
 
>  <logP> 
0.138 
 
>  <lumo_energy> 
1.929 
 
>  <melting_point> 
11.34 
 
>  <molecular_refractivity> 
28.47 
 
>  <oscillator_strength_1> 
0.0102 
 
>  <oscillator_strength_2> 
0.0267 
 
>  <oscillator_strength_3> 
0.005 
 
>  <oscillator_strength_4> 
0.0036 
 
>  <open_babel_can_smiles> 
C[C@H](C[C@@H](O)C)O 
 
>  <mulliken_charges> 
19 
1   -0.468711 
2   -0.455147 
3   -0.278398 
4   0.152453 
5   0.129021 
6   -0.634644 
7   -0.620207 
8   0.154462 
9   0.150537 
10   0.132567 
11   0.145075 
12   0.15792 
13   0.133456 
14   0.133591 
15   0.138513 
16   0.123608 
17   0.13844 
18   0.385159 
19   0.382304 
 
>  <lowdin_charges> 
19 
1   -0.462595 
2   -0.457484 
3   -0.298286 
4   -0.00016 
5   5.7e-05 
6   -0.474637 
7   -0.466052 
8   0.155749 
9   0.153068 
10   0.146055 
11   0.154809 
12   0.156429 
13   0.14426 
14   0.14657 
15   0.151659 
16   0.130514 
17   0.142075 
18   0.340069 
19   0.337902 
 
$$$$ 
 
