PCCDB-ID:  70967 
public computational chemistry database (PCCDB) project, http://pccdb.org 
 
 21 21  0  0  0  0  0  0  0  0999 V2000 
    2.4453   -1.1277    1.0915 C   0  0  0  0  0  0  0  0  0  0  0  0 
    2.1537    1.3058    0.5386 C   0  0  0  0  0  0  0  0  0  0  0  0 
    3.8196    0.5888   -3.2813 C   0  0  0  0  0  0  0  0  0  0  0  0 
    4.1175   -1.7462   -2.7442 C   0  0  0  0  0  0  0  0  0  0  0  0 
    3.2581    0.8087   -2.0339 C   0  0  0  0  0  0  0  0  0  0  0  0 
    3.5571   -1.5350   -1.4947 C   0  0  0  0  0  0  0  0  0  0  0  0 
    4.8409   -0.9128   -4.9483 C   0  0  0  0  0  0  0  0  0  0  0  0 
    4.2600   -0.6909   -3.6618 C   0  0  0  0  0  0  0  0  0  0  0  0 
    3.1053   -0.2496   -1.1027 C   0  0  0  0  0  0  0  0  0  0  0  0 
    5.3150   -1.0941   -5.9967 N   0  0  0  0  0  0  0  0  0  0  0  0 
    2.5386   -0.0368    0.1351 N   0  0  0  0  0  0  0  0  0  0  0  0 
    1.9530   -0.7690    1.9966 H   0  0  0  0  0  0  0  0  0  0  0  0 
    3.4341   -1.5182    1.3730 H   0  0  0  0  0  0  0  0  0  0  0  0 
    1.8510   -1.9609    0.6940 H   0  0  0  0  0  0  0  0  0  0  0  0 
    1.7351    1.2709    1.5454 H   0  0  0  0  0  0  0  0  0  0  0  0 
    1.3887    1.7242   -0.1291 H   0  0  0  0  0  0  0  0  0  0  0  0 
    3.0102    1.9952    0.5500 H   0  0  0  0  0  0  0  0  0  0  0  0 
    3.9237    1.4173   -3.9751 H   0  0  0  0  0  0  0  0  0  0  0  0 
    4.4537   -2.7413   -3.0187 H   0  0  0  0  0  0  0  0  0  0  0  0 
    2.9344    1.8109   -1.7813 H   0  0  0  0  0  0  0  0  0  0  0  0 
    3.4703   -2.3758   -0.8177 H   0  0  0  0  0  0  0  0  0  0  0  0 
  1 13  1  0  0  0  0 
  1 12  1  0  0  0  0 
  2 17  1  0  0  0  0 
  2 15  1  0  0  0  0 
  3  5  1  0  0  0  0 
  4  6  2  0  0  0  0 
  5 20  1  0  0  0  0 
  5  9  2  0  0  0  0 
  6  9  1  0  0  0  0 
  6 21  1  0  0  0  0 
  7  8  1  0  0  0  0 
  8  3  2  0  0  0  0 
  8  4  1  0  0  0  0 
  9 11  1  0  0  0  0 
 10  7  3  0  0  0  0 
 11  2  1  0  0  0  0 
 11  1  1  0  0  0  0 
 14  1  1  0  0  0  0 
 16  2  1  0  0  0  0 
 18  3  1  0  0  0  0 
 19  4  1  0  0  0  0 
M  END 
>  <HBA> 
2 
 
>  <HBD> 
0 
 
>  <TPSA> 
27.03 
 
>  <cid> 
70967 
 
>  <dipole> 
7.61 
 
>  <excitation_energy_1> 
4.428 
 
>  <excitation_energy_2> 
4.634 
 
>  <excitation_energy_3> 
4.759 
 
>  <excitation_energy_4> 
5.369 
 
>  <homo_energy> 
-5.6 
 
>  <homo_lumo_gap> 
4.909 
 
>  <logP> 
1.624 
 
>  <lumo_energy> 
-0.691 
 
>  <melting_point> 
51.4 
 
>  <molecular_refractivity> 
45.36 
 
>  <oscillator_strength_1> 
0.0329 
 
>  <oscillator_strength_2> 
0.5301 
 
>  <oscillator_strength_3> 
0.0355 
 
>  <oscillator_strength_4> 
0.0 
 
>  <open_babel_can_smiles> 
N#Cc1ccc(cc1)N(C)C 
 
>  <mulliken_charges> 
21 
1   -0.316156 
2   -0.316176 
3   -0.146592 
4   -0.146636 
5   -0.19913 
6   -0.199091 
7   0.220098 
8   0.125831 
9   0.383131 
10   -0.491962 
11   -0.473971 
12   0.161683 
13   0.163712 
14   0.167409 
15   0.1616 
16   0.167005 
17   0.164155 
18   0.151933 
19   0.151922 
20   0.135648 
21   0.135586 
 
>  <lowdin_charges> 
21 
1   -0.351124 
2   -0.350515 
3   -0.124028 
4   -0.122491 
5   -0.206804 
6   -0.208592 
7   -0.017879 
8   -0.053982 
9   0.072844 
10   -0.140808 
11   -0.103877 
12   0.161998 
13   0.150171 
14   0.155005 
15   0.16079 
16   0.154732 
17   0.151521 
18   0.171814 
19   0.170456 
20   0.1647 
21   0.166069 
 
$$$$ 
 
