PCCDB-ID:  61019 
public computational chemistry database (PCCDB) project, http://pccdb.org 
 
 21 20  0  0  0  0  0  0  0  0999 V2000 
    5.9916    2.9016    0.4506 C   0  0  0  0  0  0  0  0  0  0  0  0 
    5.2439   -0.7024   -4.0891 C   0  0  0  0  0  0  0  0  0  0  0  0 
    6.0227    1.6887   -4.3953 C   0  0  0  0  0  0  0  0  0  0  0  0 
    7.2918    0.1179   -2.8516 C   0  0  0  0  0  0  0  0  0  0  0  0 
    5.7095    1.6205   -0.3078 C   0  0  0  0  0  0  0  0  0  0  0  0 
    5.9272    0.5029   -3.4301 C   0  0  0  0  0  0  0  0  0  0  0  0 
    5.6912    0.5091    0.1491 O   0  0  0  0  0  0  0  0  0  0  0  0 
    5.4470    1.9535   -1.6138 O   0  0  0  0  0  0  0  0  0  0  0  0 
    4.9809    0.7997   -2.3658 O   0  0  0  0  0  0  0  0  0  0  0  0 
    6.5922    2.6624    1.3299 H   0  0  0  0  0  0  0  0  0  0  0  0 
    5.0424    3.3384    0.7808 H   0  0  0  0  0  0  0  0  0  0  0  0 
    6.5042    3.6387   -0.1725 H   0  0  0  0  0  0  0  0  0  0  0  0 
    5.8425   -1.0431   -4.9402 H   0  0  0  0  0  0  0  0  0  0  0  0 
    4.2470   -0.4327   -4.4513 H   0  0  0  0  0  0  0  0  0  0  0  0 
    5.1454   -1.5279   -3.3778 H   0  0  0  0  0  0  0  0  0  0  0  0 
    6.6712    1.4392   -5.2425 H   0  0  0  0  0  0  0  0  0  0  0  0 
    6.4398    2.5665   -3.8936 H   0  0  0  0  0  0  0  0  0  0  0  0 
    5.0318    1.9492   -4.7810 H   0  0  0  0  0  0  0  0  0  0  0  0 
    7.9477   -0.2518   -3.6475 H   0  0  0  0  0  0  0  0  0  0  0  0 
    7.1784   -0.6626   -2.0942 H   0  0  0  0  0  0  0  0  0  0  0  0 
    7.7823    0.9809   -2.3903 H   0  0  0  0  0  0  0  0  0  0  0  0 
  1 11  1  0  0  0  0 
  1 10  1  0  0  0  0 
  2  6  1  0  0  0  0 
  2 15  1  0  0  0  0 
  3 17  1  0  0  0  0 
  3  6  1  0  0  0  0 
  4 21  1  0  0  0  0 
  4 20  1  0  0  0  0 
  5  7  2  0  0  0  0 
  5  1  1  0  0  0  0 
  6  4  1  0  0  0  0 
  6  9  1  0  0  0  0 
  8  5  1  0  0  0  0 
  9  8  1  0  0  0  0 
 12  1  1  0  0  0  0 
 13  2  1  0  0  0  0 
 14  2  1  0  0  0  0 
 16  3  1  0  0  0  0 
 18  3  1  0  0  0  0 
 19  4  1  0  0  0  0 
M  END 
>  <HBA> 
3 
 
>  <HBD> 
0 
 
>  <TPSA> 
35.53 
 
>  <cid> 
61019 
 
>  <dipole> 
2.47 
 
>  <excitation_energy_1> 
5.634 
 
>  <excitation_energy_2> 
5.79 
 
>  <excitation_energy_3> 
6.442 
 
>  <excitation_energy_4> 
6.63 
 
>  <homo_energy> 
-7.309 
 
>  <homo_lumo_gap> 
7.494 
 
>  <logP> 
1.28 
 
>  <lumo_energy> 
0.185 
 
>  <melting_point> 
-7.36 
 
>  <molecular_refractivity> 
33.36 
 
>  <oscillator_strength_1> 
0.0003 
 
>  <oscillator_strength_2> 
0.0022 
 
>  <oscillator_strength_3> 
0.003 
 
>  <oscillator_strength_4> 
0.034 
 
>  <open_babel_can_smiles> 
CC(=O)OOC(C)(C)C 
 
>  <mulliken_charges> 
21 
1   -0.534696 
2   -0.464205 
3   -0.449609 
4   -0.461343 
5   0.628253 
6   0.317324 
7   -0.439428 
8   -0.286063 
9   -0.278307 
10   0.189489 
11   0.194459 
12   0.179728 
13   0.151974 
14   0.161158 
15   0.169076 
16   0.142688 
17   0.159212 
18   0.154219 
19   0.143313 
20   0.175085 
21   0.147676 
 
>  <lowdin_charges> 
21 
1   -0.467468 
2   -0.444971 
3   -0.455551 
4   -0.458757 
5   0.195437 
6   0.125962 
7   -0.233608 
8   -0.102087 
9   -0.135258 
10   0.181114 
11   0.184935 
12   0.175612 
13   0.160208 
14   0.159983 
15   0.164879 
16   0.154623 
17   0.159416 
18   0.157168 
19   0.155908 
20   0.168094 
21   0.154361 
 
$$$$ 
 
