PCCDB-ID:  16637 
public computational chemistry database (PCCDB) project, http://pccdb.org 
 
 19 18  0  0  0  0  0  0  0  0999 V2000 
    3.4252    1.0530    0.0051 C   0  0  0  0  0  0  0  0  0  0  0  0 
   -0.1884   -1.0618   -2.9268 C   0  0  0  0  0  0  0  0  0  0  0  0 
    0.3417   -3.1136   -1.5351 C   0  0  0  0  0  0  0  0  0  0  0  0 
    2.7126   -0.0321   -0.3199 C   0  0  0  0  0  0  0  0  0  0  0  0 
    0.6726   -1.6368   -1.7915 C   0  0  0  0  0  0  0  0  0  0  0  0 
    2.9125   -0.8224   -1.5629 C   0  0  0  0  0  0  0  0  0  0  0  0 
    2.0705   -1.5412   -2.1842 N   0  0  0  0  0  0  0  0  0  0  0  0 
    4.1665   -0.7398   -2.1154 O   0  0  0  0  0  0  0  0  0  0  0  0 
    3.2417    1.5940    0.9287 H   0  0  0  0  0  0  0  0  0  0  0  0 
    4.1911    1.4647   -0.6483 H   0  0  0  0  0  0  0  0  0  0  0  0 
   -1.2544   -1.1565   -2.6885 H   0  0  0  0  0  0  0  0  0  0  0  0 
    0.0130   -1.5968   -3.8610 H   0  0  0  0  0  0  0  0  0  0  0  0 
    0.0369   -0.0021   -3.0880 H   0  0  0  0  0  0  0  0  0  0  0  0 
   -0.7155   -3.2335   -1.2708 H   0  0  0  0  0  0  0  0  0  0  0  0 
    0.9495   -3.5146   -0.7165 H   0  0  0  0  0  0  0  0  0  0  0  0 
    0.5493   -3.7079   -2.4315 H   0  0  0  0  0  0  0  0  0  0  0  0 
    1.9278   -0.3709    0.3497 H   0  0  0  0  0  0  0  0  0  0  0  0 
    0.4388   -1.0664   -0.8774 H   0  0  0  0  0  0  0  0  0  0  0  0 
    4.7846   -0.4502   -1.4261 H   0  0  0  0  0  0  0  0  0  0  0  0 
  1  9  1  0  0  0  0 
  2 11  1  0  0  0  0 
  2  5  1  0  0  0  0 
  3 14  1  0  0  0  0 
  3 15  1  0  0  0  0 
  4  1  2  0  0  0  0 
  4 17  1  0  0  0  0 
  5  3  1  0  0  0  0 
  5 18  1  0  0  0  0 
  6  4  1  0  0  0  0 
  7  5  1  0  0  0  0 
  7  6  2  0  0  0  0 
  8  6  1  0  0  0  0 
  8 19  1  0  0  0  0 
 10  1  1  0  0  0  0 
 12  2  1  0  0  0  0 
 13  2  1  0  0  0  0 
 16  3  1  0  0  0  0 
M  END 
>  <HBA> 
2 
 
>  <HBD> 
1 
 
>  <TPSA> 
29.1 
 
>  <cid> 
16637 
 
>  <dipole> 
3.36 
 
>  <excitation_energy_1> 
4.289 
 
>  <excitation_energy_2> 
5.072 
 
>  <excitation_energy_3> 
6.077 
 
>  <excitation_energy_4> 
6.193 
 
>  <homo_energy> 
-6.64 
 
>  <homo_lumo_gap> 
5.554 
 
>  <logP> 
1.088 
 
>  <lumo_energy> 
-1.086 
 
>  <melting_point> 
1.41 
 
>  <molecular_refractivity> 
33.48 
 
>  <oscillator_strength_1> 
0.0019 
 
>  <oscillator_strength_2> 
0.2339 
 
>  <oscillator_strength_3> 
0.0137 
 
>  <oscillator_strength_4> 
0.011 
 
>  <open_babel_can_smiles> 
C=C/C(=N\C(C)C)/O 
 
>  <mulliken_charges> 
19 
1   -0.354023 
2   -0.426972 
3   -0.429111 
4   -0.118401 
5   0.016735 
6   0.453561 
7   -0.40324 
8   -0.589639 
9   0.160874 
10   0.156956 
11   0.135167 
12   0.157417 
13   0.144723 
14   0.135679 
15   0.140493 
16   0.157938 
17   0.159492 
18   0.104035 
19   0.398318 
 
>  <lowdin_charges> 
19 
1   -0.316861 
2   -0.440603 
3   -0.44525 
4   -0.183816 
5   -0.053671 
6   0.120616 
7   -0.185353 
8   -0.377228 
9   0.170026 
10   0.16393 
11   0.145562 
12   0.156696 
13   0.14985 
14   0.145963 
15   0.149922 
16   0.157511 
17   0.171307 
18   0.118372 
19   0.353027 
 
$$$$ 
 
