PCCDB-ID:  8663 
public computational chemistry database (PCCDB) project, http://pccdb.org 
 
 19 20  0  0  0  0  0  0  0  0999 V2000 
    2.4237    0.7443    0.0103 C   0  0  0  0  0  0  0  0  0  0  0  0 
    2.4427   -0.6729    0.0169 C   0  0  0  0  0  0  0  0  0  0  0  0 
    1.2229    1.4166   -0.0015 C   0  0  0  0  0  0  0  0  0  0  0  0 
    1.2673   -1.3887    0.0118 C   0  0  0  0  0  0  0  0  0  0  0  0 
   -1.2650    1.3690   -0.0185 C   0  0  0  0  0  0  0  0  0  0  0  0 
   -2.4426    0.6583   -0.0227 C   0  0  0  0  0  0  0  0  0  0  0  0 
   -1.2171   -1.4372   -0.0055 C   0  0  0  0  0  0  0  0  0  0  0  0 
   -0.0086    0.7088   -0.0068 C   0  0  0  0  0  0  0  0  0  0  0  0 
    0.0084   -0.7259   -0.0001 C   0  0  0  0  0  0  0  0  0  0  0  0 
   -2.4190   -0.7605   -0.0163 C   0  0  0  0  0  0  0  0  0  0  0  0 
   -3.5753   -1.4930   -0.0180 O   0  0  0  0  0  0  0  0  0  0  0  0 
    3.3599    1.2957    0.0151 H   0  0  0  0  0  0  0  0  0  0  0  0 
    3.3956   -1.1957    0.0262 H   0  0  0  0  0  0  0  0  0  0  0  0 
    1.1995    2.5041   -0.0054 H   0  0  0  0  0  0  0  0  0  0  0  0 
    1.2846   -2.4759    0.0179 H   0  0  0  0  0  0  0  0  0  0  0  0 
   -1.2884    2.4561   -0.0224 H   0  0  0  0  0  0  0  0  0  0  0  0 
   -3.3991    1.1786   -0.0305 H   0  0  0  0  0  0  0  0  0  0  0  0 
   -1.2191   -2.5232    0.0000 H   0  0  0  0  0  0  0  0  0  0  0  0 
   -4.3322   -0.8876   -0.0376 H   0  0  0  0  0  0  0  0  0  0  0  0 
  1 12  1  0  0  0  0 
  1  2  2  0  0  0  0 
  2 13  1  0  0  0  0 
  3  1  1  0  0  0  0 
  4  2  1  0  0  0  0 
  4 15  1  0  0  0  0 
  5  8  1  0  0  0  0 
  6  5  2  0  0  0  0 
  6 10  1  0  0  0  0 
  7  9  1  0  0  0  0 
  7 18  1  0  0  0  0 
  8  3  2  0  0  0  0 
  8  9  1  0  0  0  0 
  9  4  2  0  0  0  0 
 10  7  2  0  0  0  0 
 11 10  1  0  0  0  0 
 14  3  1  0  0  0  0 
 16  5  1  0  0  0  0 
 17  6  1  0  0  0  0 
 19 11  1  0  0  0  0 
M  END 
>  <HBA> 
1 
 
>  <HBD> 
1 
 
>  <TPSA> 
20.23 
 
>  <cid> 
8663 
 
>  <dipole> 
1.59 
 
>  <excitation_energy_1> 
4.066 
 
>  <excitation_energy_2> 
4.491 
 
>  <excitation_energy_3> 
4.905 
 
>  <excitation_energy_4> 
5.328 
 
>  <homo_energy> 
-5.516 
 
>  <homo_lumo_gap> 
4.593 
 
>  <logP> 
2.545 
 
>  <lumo_energy> 
-0.922 
 
>  <melting_point> 
88.63 
 
>  <molecular_refractivity> 
45.97 
 
>  <oscillator_strength_1> 
0.0495 
 
>  <oscillator_strength_2> 
0.0091 
 
>  <oscillator_strength_3> 
0.0002 
 
>  <oscillator_strength_4> 
0.0348 
 
>  <open_babel_can_smiles> 
Oc1ccc2c(c1)cccc2 
 
>  <mulliken_charges> 
19 
1   -0.13942 
2   -0.134774 
3   -0.190685 
4   -0.193793 
5   -0.198194 
6   -0.193946 
7   -0.243236 
8   0.135861 
9   0.138342 
10   0.354503 
11   -0.644755 
12   0.127171 
13   0.128518 
14   0.126877 
15   0.129266 
16   0.133312 
17   0.120365 
18   0.137296 
19   0.407292 
 
>  <lowdin_charges> 
19 
1   -0.167859 
2   -0.155356 
3   -0.151679 
4   -0.159595 
5   -0.14241 
6   -0.2057 
7   -0.194403 
8   -0.014005 
9   0.010535 
10   0.100317 
11   -0.379262 
12   0.157719 
13   0.157965 
14   0.153996 
15   0.155388 
16   0.157468 
17   0.154205 
18   0.164746 
19   0.357929 
 
$$$$ 
 
