PCCDB-ID:  66841 
public computational chemistry database (PCCDB) project, http://pccdb.org 
 
 26 26  0  0  0  0  0  0  0  0999 V2000 
    0.8292   -0.1239    0.2090 C   0  0  0  0  0  0  0  0  0  0  0  0 
    2.8266    0.2829   -1.3001 C   0  0  0  0  0  0  0  0  0  0  0  0 
    3.3032    3.9176    4.0654 C   0  0  0  0  0  0  0  0  0  0  0  0 
    4.3270    1.8915    3.0074 C   0  0  0  0  0  0  0  0  0  0  0  0 
    3.1472    3.6184    1.5851 C   0  0  0  0  0  0  0  0  0  0  0  0 
    3.7801    0.8840    2.0215 C   0  0  0  0  0  0  0  0  0  0  0  0 
    2.2523    2.5314    0.9563 C   0  0  0  0  0  0  0  0  0  0  0  0 
    2.3588    0.0510    0.1509 C   0  0  0  0  0  0  0  0  0  0  0  0 
    3.5809    3.2074    2.9696 C   0  0  0  0  0  0  0  0  0  0  0  0 
    2.8490    1.1420    1.0924 C   0  0  0  0  0  0  0  0  0  0  0  0 
    0.5138   -0.9653   -0.4193 H   0  0  0  0  0  0  0  0  0  0  0  0 
    0.3077    0.7700   -0.1537 H   0  0  0  0  0  0  0  0  0  0  0  0 
    0.4906   -0.3192    1.2328 H   0  0  0  0  0  0  0  0  0  0  0  0 
    2.5157   -0.5502   -1.9421 H   0  0  0  0  0  0  0  0  0  0  0  0 
    3.9177    0.3653   -1.3539 H   0  0  0  0  0  0  0  0  0  0  0  0 
    2.3983    1.1992   -1.7241 H   0  0  0  0  0  0  0  0  0  0  0  0 
    3.6026    3.5848    5.0567 H   0  0  0  0  0  0  0  0  0  0  0  0 
    2.7685    4.8632    4.0111 H   0  0  0  0  0  0  0  0  0  0  0  0 
    5.3939    2.0644    2.7811 H   0  0  0  0  0  0  0  0  0  0  0  0 
    4.3090    1.4733    4.0230 H   0  0  0  0  0  0  0  0  0  0  0  0 
    2.6237    4.5807    1.6068 H   0  0  0  0  0  0  0  0  0  0  0  0 
    4.0356    3.7437    0.9477 H   0  0  0  0  0  0  0  0  0  0  0  0 
    4.1929   -0.1227    2.0937 H   0  0  0  0  0  0  0  0  0  0  0  0 
    2.0765    2.7700   -0.1008 H   0  0  0  0  0  0  0  0  0  0  0  0 
    1.2627    2.5552    1.4362 H   0  0  0  0  0  0  0  0  0  0  0  0 
    2.8112   -0.8910    0.4903 H   0  0  0  0  0  0  0  0  0  0  0  0 
  1 13  1  0  0  0  0 
  2  8  1  0  0  0  0 
  3 17  1  0  0  0  0 
  4 20  1  0  0  0  0 
  5 21  1  0  0  0  0 
  5  9  1  0  0  0  0 
  6 23  1  0  0  0  0 
  6  4  1  0  0  0  0 
  7 10  1  0  0  0  0 
  7 25  1  0  0  0  0 
  7  5  1  0  0  0  0 
  8  1  1  0  0  0  0 
  8 26  1  0  0  0  0 
  8 10  1  0  0  0  0 
  9  4  1  0  0  0  0 
  9  3  2  0  0  0  0 
 10  6  2  0  0  0  0 
 11  1  1  0  0  0  0 
 12  1  1  0  0  0  0 
 14  2  1  0  0  0  0 
 15  2  1  0  0  0  0 
 16  2  1  0  0  0  0 
 18  3  1  0  0  0  0 
 19  4  1  0  0  0  0 
 22  5  1  0  0  0  0 
 24  7  1  0  0  0  0 
M  END 
>  <HBA> 
0 
 
>  <HBD> 
0 
 
>  <TPSA> 
0.0 
 
>  <cid> 
66841 
 
>  <dipole> 
0.56 
 
>  <excitation_energy_1> 
5.488 
 
>  <excitation_energy_2> 
5.813 
 
>  <excitation_energy_3> 
6.007 
 
>  <excitation_energy_4> 
6.146 
 
>  <homo_energy> 
-6.185 
 
>  <homo_lumo_gap> 
6.923 
 
>  <logP> 
3.309 
 
>  <lumo_energy> 
0.737 
 
>  <melting_point> 
-10.61 
 
>  <molecular_refractivity> 
47.12 
 
>  <oscillator_strength_1> 
0.0011 
 
>  <oscillator_strength_2> 
0.0124 
 
>  <oscillator_strength_3> 
0.0208 
 
>  <oscillator_strength_4> 
0.0147 
 
>  <open_babel_can_smiles> 
C=C1CCC(=CC1)C(C)C 
 
>  <mulliken_charges> 
26 
1   -0.44691 
2   -0.443353 
3   -0.416431 
4   -0.357489 
5   -0.335262 
6   -0.193161 
7   -0.336923 
8   -0.146313 
9   0.234494 
10   0.202315 
11   0.141084 
12   0.143265 
13   0.147917 
14   0.141069 
15   0.146325 
16   0.141188 
17   0.129437 
18   0.129807 
19   0.154284 
20   0.148759 
21   0.135881 
22   0.145017 
23   0.11417 
24   0.140094 
25   0.154218 
26   0.126518 
 
>  <lowdin_charges> 
26 
1   -0.44637 
2   -0.44434 
3   -0.364986 
4   -0.270739 
5   -0.269965 
6   -0.194246 
7   -0.273999 
8   -0.116329 
9   0.008883 
10   -0.018838 
11   0.149817 
12   0.147693 
13   0.150695 
14   0.149502 
15   0.149015 
16   0.145679 
17   0.152365 
18   0.152716 
19   0.154693 
20   0.154321 
21   0.148142 
22   0.14957 
23   0.146591 
24   0.14611 
25   0.152372 
26   0.14165 
 
$$$$ 
 
