PCCDB-ID:  69685 
public computational chemistry database (PCCDB) project, http://pccdb.org 
 
 20 20  0  0  0  0  0  0  0  0999 V2000 
   -1.1716   -0.2799    0.4591 C   0  0  0  0  0  0  0  0  0  0  0  0 
   -0.9857    0.9917   -0.0851 C   0  0  0  0  0  0  0  0  0  0  0  0 
   -0.1177   -1.1958    0.4466 C   0  0  0  0  0  0  0  0  0  0  0  0 
    0.2400    1.3423   -0.6527 C   0  0  0  0  0  0  0  0  0  0  0  0 
    1.1199   -0.8464   -0.0953 C   0  0  0  0  0  0  0  0  0  0  0  0 
    4.6287   -1.1877   -1.7223 C   0  0  0  0  0  0  0  0  0  0  0  0 
    3.4255   -0.4759   -2.3459 C   0  0  0  0  0  0  0  0  0  0  0  0 
    1.2990    0.4249   -0.6590 C   0  0  0  0  0  0  0  0  0  0  0  0 
    4.3748   -1.6716   -0.4140 O   0  0  0  0  0  0  0  0  0  0  0  0 
    2.8687    0.9735   -1.3399 S   0  0  0  0  0  0  0  0  0  0  0  0 
   -2.1305   -0.5559    0.8888 H   0  0  0  0  0  0  0  0  0  0  0  0 
   -1.8011    1.7103   -0.0854 H   0  0  0  0  0  0  0  0  0  0  0  0 
   -0.2511   -2.1861    0.8745 H   0  0  0  0  0  0  0  0  0  0  0  0 
    0.3754    2.3228   -1.0998 H   0  0  0  0  0  0  0  0  0  0  0  0 
    1.9443   -1.5532   -0.0780 H   0  0  0  0  0  0  0  0  0  0  0  0 
    5.5035   -0.5194   -1.7344 H   0  0  0  0  0  0  0  0  0  0  0  0 
    4.8774   -2.0664   -2.3283 H   0  0  0  0  0  0  0  0  0  0  0  0 
    2.5758   -1.1559   -2.4452 H   0  0  0  0  0  0  0  0  0  0  0  0 
    3.6831   -0.0995   -3.3420 H   0  0  0  0  0  0  0  0  0  0  0  0 
    4.2223   -0.8878    0.1422 H   0  0  0  0  0  0  0  0  0  0  0  0 
  1 11  1  0  0  0  0 
  2  1  2  0  0  0  0 
  3  1  1  0  0  0  0 
  3 13  1  0  0  0  0 
  4  2  1  0  0  0  0 
  5 15  1  0  0  0  0 
  5  3  2  0  0  0  0 
  6  9  1  0  0  0  0 
  7  6  1  0  0  0  0 
  7 10  1  0  0  0  0 
  8  4  2  0  0  0  0 
  8  5  1  0  0  0  0 
  9 20  1  0  0  0  0 
 10  8  1  0  0  0  0 
 12  2  1  0  0  0  0 
 14  4  1  0  0  0  0 
 16  6  1  0  0  0  0 
 17  6  1  0  0  0  0 
 18  7  1  0  0  0  0 
 19  7  1  0  0  0  0 
M  END 
>  <HBA> 
2 
 
>  <HBD> 
1 
 
>  <TPSA> 
45.53 
 
>  <cid> 
69685 
 
>  <dipole> 
1.02 
 
>  <excitation_energy_1> 
4.727 
 
>  <excitation_energy_2> 
4.855 
 
>  <excitation_energy_3> 
5.399 
 
>  <excitation_energy_4> 
5.553 
 
>  <homo_energy> 
-5.978 
 
>  <homo_lumo_gap> 
5.644 
 
>  <logP> 
1.771 
 
>  <lumo_energy> 
-0.335 
 
>  <melting_point> 
34.08 
 
>  <molecular_refractivity> 
44.13 
 
>  <oscillator_strength_1> 
0.0607 
 
>  <oscillator_strength_2> 
0.0789 
 
>  <oscillator_strength_3> 
0.0101 
 
>  <oscillator_strength_4> 
0.0055 
 
>  <open_babel_can_smiles> 
OCCSc1ccccc1 
 
>  <mulliken_charges> 
20 
1   -0.131815 
2   -0.120399 
3   -0.122117 
4   -0.151875 
5   -0.173046 
6   -0.028353 
7   -0.436353 
8   -0.081336 
9   -0.605368 
10   0.068367 
11   0.132646 
12   0.134061 
13   0.135749 
14   0.145387 
15   0.163399 
16   0.137426 
17   0.154902 
18   0.193024 
19   0.176706 
20   0.408996 
 
>  <lowdin_charges> 
20 
1   -0.158154 
2   -0.153114 
3   -0.149563 
4   -0.161702 
5   -0.176528 
6   -0.140354 
7   -0.393192 
8   -0.121248 
9   -0.463185 
10   0.119877 
11   0.159087 
12   0.160948 
13   0.159907 
14   0.16613 
15   0.171624 
16   0.13446 
17   0.153941 
18   0.175296 
19   0.168544 
20   0.347228 
 
$$$$ 
 
