PCCDB-ID:  10875 
public computational chemistry database (PCCDB) project, http://pccdb.org 
 
 19 19  0  0  0  0  0  0  0  0999 V2000 
    0.8828    0.0250   -0.1849 C   0  0  0  0  0  0  0  0  0  0  0  0 
    3.0661   -1.2752   -0.1310 C   0  0  0  0  0  0  0  0  0  0  0  0 
    3.1755    1.1133   -0.1399 C   0  0  0  0  0  0  0  0  0  0  0  0 
    4.4543   -1.3473   -0.1181 C   0  0  0  0  0  0  0  0  0  0  0  0 
    4.5697    1.0611   -0.1284 C   0  0  0  0  0  0  0  0  0  0  0  0 
    2.3920   -0.0452   -0.1440 C   0  0  0  0  0  0  0  0  0  0  0  0 
    5.2322   -0.1759   -0.1191 C   0  0  0  0  0  0  0  0  0  0  0  0 
    7.4438    0.7847    0.3110 N   0  0  0  0  0  0  0  0  0  0  0  0 
    6.6306   -0.2742   -0.1513 N   0  0  0  0  0  0  0  0  0  0  0  0 
    0.4292   -0.8872    0.2178 H   0  0  0  0  0  0  0  0  0  0  0  0 
    0.5092    0.1463   -1.2111 H   0  0  0  0  0  0  0  0  0  0  0  0 
    0.5032    0.8721    0.3978 H   0  0  0  0  0  0  0  0  0  0  0  0 
    2.4910   -2.1989   -0.1221 H   0  0  0  0  0  0  0  0  0  0  0  0 
    2.6888    2.0867   -0.1424 H   0  0  0  0  0  0  0  0  0  0  0  0 
    4.9475   -2.3174   -0.1017 H   0  0  0  0  0  0  0  0  0  0  0  0 
    5.1414    1.9839   -0.1333 H   0  0  0  0  0  0  0  0  0  0  0  0 
    6.9963    1.2573    1.1016 H   0  0  0  0  0  0  0  0  0  0  0  0 
    7.5332    1.4691   -0.4377 H   0  0  0  0  0  0  0  0  0  0  0  0 
    6.9876   -1.1590    0.1878 H   0  0  0  0  0  0  0  0  0  0  0  0 
  1  6  1  0  0  0  0 
  1 10  1  0  0  0  0 
  1 12  1  0  0  0  0 
  2 13  1  0  0  0  0 
  2  4  2  0  0  0  0 
  3  5  1  0  0  0  0 
  4 15  1  0  0  0  0 
  5  7  2  0  0  0  0 
  6  3  2  0  0  0  0 
  6  2  1  0  0  0  0 
  7  4  1  0  0  0  0 
  8 17  1  0  0  0  0 
  9  7  1  0  0  0  0 
  9 19  1  0  0  0  0 
  9  8  1  0  0  0  0 
 11  1  1  0  0  0  0 
 14  3  1  0  0  0  0 
 16  5  1  0  0  0  0 
 18  8  1  0  0  0  0 
M  END 
>  <HBA> 
2 
 
>  <HBD> 
2 
 
>  <TPSA> 
38.05 
 
>  <cid> 
10875 
 
>  <dipole> 
0.81 
 
>  <excitation_energy_1> 
4.523 
 
>  <excitation_energy_2> 
4.75 
 
>  <excitation_energy_3> 
5.117 
 
>  <excitation_energy_4> 
5.255 
 
>  <homo_energy> 
-5.287 
 
>  <homo_lumo_gap> 
5.404 
 
>  <logP> 
2.054 
 
>  <lumo_energy> 
0.117 
 
>  <melting_point> 
97.62 
 
>  <molecular_refractivity> 
38.61 
 
>  <oscillator_strength_1> 
0.0365 
 
>  <oscillator_strength_2> 
0.0265 
 
>  <oscillator_strength_3> 
0.0282 
 
>  <oscillator_strength_4> 
0.1197 
 
>  <open_babel_can_smiles> 
NNc1ccc(cc1)C 
 
>  <mulliken_charges> 
19 
1   -0.529247 
2   -0.186461 
3   -0.187606 
4   -0.184844 
5   -0.17857 
6   0.176006 
7   0.331786 
8   -0.57807 
9   -0.536798 
10   0.151958 
11   0.160623 
12   0.153224 
13   0.119431 
14   0.118058 
15   0.117804 
16   0.104637 
17   0.300951 
18   0.321822 
19   0.325296 
 
>  <lowdin_charges> 
19 
1   -0.441984 
2   -0.156784 
3   -0.155364 
4   -0.19526 
5   -0.211096 
6   -0.023591 
7   0.042214 
8   -0.470264 
9   -0.252425 
10   0.155562 
11   0.156976 
12   0.15648 
13   0.153848 
14   0.152508 
15   0.152726 
16   0.149899 
17   0.249029 
18   0.263471 
19   0.274055 
 
$$$$ 
 
