PCCDB-ID:  51152 
public computational chemistry database (PCCDB) project, http://pccdb.org 
 
 23 22  0  0  0  0  0  0  0  0999 V2000 
    3.3859   -1.0349    1.6726 C   0  0  0  0  0  0  0  0  0  0  0  0 
    4.9072   -1.9822   -0.1596 C   0  0  0  0  0  0  0  0  0  0  0  0 
    3.0702    3.8236    1.4184 C   0  0  0  0  0  0  0  0  0  0  0  0 
    3.4343    1.1656   -1.1522 C   0  0  0  0  0  0  0  0  0  0  0  0 
    4.1439   -0.7590    0.3657 C   0  0  0  0  0  0  0  0  0  0  0  0 
    3.7811    2.7799    0.5918 C   0  0  0  0  0  0  0  0  0  0  0  0 
    2.1834   -0.7997   -1.2168 N   0  0  0  0  0  0  0  0  0  0  0  0 
    3.2555   -0.1787   -0.6809 N   0  0  0  0  0  0  0  0  0  0  0  0 
    4.9652    2.5287    0.6413 O   0  0  0  0  0  0  0  0  0  0  0  0 
    1.9746   -1.9363   -0.8147 O   0  0  0  0  0  0  0  0  0  0  0  0 
    2.9022    2.1486   -0.2330 O   0  0  0  0  0  0  0  0  0  0  0  0 
    4.1043   -1.3224    2.4486 H   0  0  0  0  0  0  0  0  0  0  0  0 
    2.6607   -1.8411    1.5515 H   0  0  0  0  0  0  0  0  0  0  0  0 
    2.8582   -0.1380    2.0132 H   0  0  0  0  0  0  0  0  0  0  0  0 
    5.6483   -2.2910    0.5866 H   0  0  0  0  0  0  0  0  0  0  0  0 
    5.4420   -1.7416   -1.0848 H   0  0  0  0  0  0  0  0  0  0  0  0 
    4.2333   -2.8187   -0.3505 H   0  0  0  0  0  0  0  0  0  0  0  0 
    3.7776    4.2858    2.1074 H   0  0  0  0  0  0  0  0  0  0  0  0 
    2.2462    3.3650    1.9741 H   0  0  0  0  0  0  0  0  0  0  0  0 
    2.6360    4.5848    0.7620 H   0  0  0  0  0  0  0  0  0  0  0  0 
    2.8509    1.2769   -2.0648 H   0  0  0  0  0  0  0  0  0  0  0  0 
    4.4914    1.3748   -1.3154 H   0  0  0  0  0  0  0  0  0  0  0  0 
    4.8654    0.0398    0.5563 H   0  0  0  0  0  0  0  0  0  0  0  0 
  1 14  1  0  0  0  0 
  1 12  1  0  0  0  0 
  2  5  1  0  0  0  0 
  2 15  1  0  0  0  0 
  3 19  1  0  0  0  0 
  3 18  1  0  0  0  0 
  4  8  1  0  0  0  0 
  4 11  1  0  0  0  0 
  5 23  1  0  0  0  0 
  5  1  1  0  0  0  0 
  6  9  2  0  0  0  0 
  6  3  1  0  0  0  0 
  7 10  2  0  0  0  0 
  7  8  1  0  0  0  0 
  8  5  1  0  0  0  0 
 11  6  1  0  0  0  0 
 13  1  1  0  0  0  0 
 16  2  1  0  0  0  0 
 17  2  1  0  0  0  0 
 20  3  1  0  0  0  0 
 21  4  1  0  0  0  0 
 22  4  1  0  0  0  0 
M  END 
>  <HBA> 
5 
 
>  <HBD> 
0 
 
>  <TPSA> 
58.97 
 
>  <cid> 
51152 
 
>  <dipole> 
2.68 
 
>  <excitation_energy_1> 
3.171 
 
>  <excitation_energy_2> 
5.33 
 
>  <excitation_energy_3> 
5.742 
 
>  <excitation_energy_4> 
5.801 
 
>  <homo_energy> 
-6.169 
 
>  <homo_lumo_gap> 
5.026 
 
>  <logP> 
0.899 
 
>  <lumo_energy> 
-1.143 
 
>  <melting_point> 
7.57 
 
>  <molecular_refractivity> 
39.88 
 
>  <oscillator_strength_1> 
0.001 
 
>  <oscillator_strength_2> 
0.0001 
 
>  <oscillator_strength_3> 
0.0399 
 
>  <oscillator_strength_4> 
0.0851 
 
>  <open_babel_can_smiles> 
O=NN(C(C)C)COC(=O)C 
 
>  <mulliken_charges> 
23 
1   -0.449295 
2   -0.448966 
3   -0.524203 
4   0.062522 
5   0.007271 
6   0.607398 
7   0.153999 
8   -0.223321 
9   -0.464367 
10   -0.364887 
11   -0.446237 
12   0.149754 
13   0.18623 
14   0.147133 
15   0.14996 
16   0.147797 
17   0.186083 
18   0.186933 
19   0.1893 
20   0.18919 
21   0.190167 
22   0.189505 
23   0.178035 
 
>  <lowdin_charges> 
23 
1   -0.452771 
2   -0.452085 
3   -0.466005 
4   -0.07737 
5   -0.065709 
6   0.203198 
7   0.058939 
8   -0.047888 
9   -0.262362 
10   -0.252102 
11   -0.202074 
12   0.15714 
13   0.169858 
14   0.153277 
15   0.15708 
16   0.153434 
17   0.169838 
18   0.17946 
19   0.182838 
20   0.183622 
21   0.175124 
22   0.166641 
23   0.167916 
 
$$$$ 
 
