PCCDB-ID:  27561 
public computational chemistry database (PCCDB) project, http://pccdb.org 
 
 35 37  0  0  0  0  0  0  0  0999 V2000 
    0.9480    0.1753    0.2962 C   0  0  0  0  0  0  0  0  0  0  0  0 
    8.0819    1.6355    0.0331 C   0  0  0  0  0  0  0  0  0  0  0  0 
    4.1900    3.2755    0.2847 C   0  0  0  0  0  0  0  0  0  0  0  0 
    3.0747    2.4542    0.2972 C   0  0  0  0  0  0  0  0  0  0  0  0 
    5.4973    2.7525    0.2013 C   0  0  0  0  0  0  0  0  0  0  0  0 
    5.5233   -1.9715   -0.0280 C   0  0  0  0  0  0  0  0  0  0  0  0 
    2.3730   -2.5027    0.1043 C   0  0  0  0  0  0  0  0  0  0  0  0 
    5.3982   -3.1629    0.9315 C   0  0  0  0  0  0  0  0  0  0  0  0 
    2.9593   -3.5678    1.0460 C   0  0  0  0  0  0  0  0  0  0  0  0 
    4.4392   -0.9298    0.0952 C   0  0  0  0  0  0  0  0  0  0  0  0 
    3.0840   -1.1793    0.1430 C   0  0  0  0  0  0  0  0  0  0  0  0 
    3.2956    1.0695    0.2206 C   0  0  0  0  0  0  0  0  0  0  0  0 
    5.7064    1.3781    0.1312 C   0  0  0  0  0  0  0  0  0  0  0  0 
    4.5946    0.5018    0.1424 C   0  0  0  0  0  0  0  0  0  0  0  0 
    4.2716   -4.0499    0.6178 N   0  0  0  0  0  0  0  0  0  0  0  0 
    2.3869    0.0276    0.2093 N   0  0  0  0  0  0  0  0  0  0  0  0 
    6.9433    0.7930    0.0505 O   0  0  0  0  0  0  0  0  0  0  0  0 
    0.4461   -0.4143   -0.4776 H   0  0  0  0  0  0  0  0  0  0  0  0 
    0.6875    1.2225    0.1369 H   0  0  0  0  0  0  0  0  0  0  0  0 
    0.5619   -0.1301    1.2773 H   0  0  0  0  0  0  0  0  0  0  0  0 
    8.1570    2.2333    0.9513 H   0  0  0  0  0  0  0  0  0  0  0  0 
    8.0715    2.3105   -0.8332 H   0  0  0  0  0  0  0  0  0  0  0  0 
    8.9460    0.9717   -0.0376 H   0  0  0  0  0  0  0  0  0  0  0  0 
    4.0621    4.3530    0.3430 H   0  0  0  0  0  0  0  0  0  0  0  0 
    2.0772    2.8763    0.3690 H   0  0  0  0  0  0  0  0  0  0  0  0 
    6.3357    3.4390    0.1942 H   0  0  0  0  0  0  0  0  0  0  0  0 
    5.5541   -2.3722   -1.0522 H   0  0  0  0  0  0  0  0  0  0  0  0 
    6.4881   -1.4914    0.1489 H   0  0  0  0  0  0  0  0  0  0  0  0 
    1.3189   -2.3682    0.3718 H   0  0  0  0  0  0  0  0  0  0  0  0 
    2.3899   -2.9142   -0.9155 H   0  0  0  0  0  0  0  0  0  0  0  0 
    5.3553   -2.7846    1.9709 H   0  0  0  0  0  0  0  0  0  0  0  0 
    6.3094   -3.7674    0.8434 H   0  0  0  0  0  0  0  0  0  0  0  0 
    2.2801   -4.4289    1.0397 H   0  0  0  0  0  0  0  0  0  0  0  0 
    2.9688   -3.1640    2.0770 H   0  0  0  0  0  0  0  0  0  0  0  0 
    4.4392   -4.9481    1.0644 H   0  0  0  0  0  0  0  0  0  0  0  0 
  1 20  1  0  0  0  0 
  2 17  1  0  0  0  0 
  2 21  1  0  0  0  0 
  3  4  1  0  0  0  0 
  3 24  1  0  0  0  0 
  4 25  1  0  0  0  0 
  5  3  2  0  0  0  0 
  6 10  1  0  0  0  0 
  6 28  1  0  0  0  0 
  6  8  1  0  0  0  0 
  7 11  1  0  0  0  0 
  7 29  1  0  0  0  0 
  7  9  1  0  0  0  0 
  8 31  1  0  0  0  0 
  9 34  1  0  0  0  0 
 10 14  1  0  0  0  0 
 10 11  2  0  0  0  0 
 11 16  1  0  0  0  0 
 12  4  2  0  0  0  0 
 13 14  2  0  0  0  0 
 13  5  1  0  0  0  0 
 14 12  1  0  0  0  0 
 15  8  1  0  0  0  0 
 15  9  1  0  0  0  0 
 15 35  1  0  0  0  0 
 16 12  1  0  0  0  0 
 16  1  1  0  0  0  0 
 17 13  1  0  0  0  0 
 18  1  1  0  0  0  0 
 19  1  1  0  0  0  0 
 22  2  1  0  0  0  0 
 23  2  1  0  0  0  0 
 26  5  1  0  0  0  0 
 27  6  1  0  0  0  0 
 30  7  1  0  0  0  0 
 32  8  1  0  0  0  0 
 33  9  1  0  0  0  0 
M  END 
>  <HBA> 
3 
 
>  <HBD> 
1 
 
>  <TPSA> 
26.19 
 
>  <cid> 
27561 
 
>  <dipole> 
1.42 
 
>  <excitation_energy_1> 
4.258 
 
>  <excitation_energy_2> 
4.407 
 
>  <excitation_energy_3> 
4.597 
 
>  <excitation_energy_4> 
4.64 
 
>  <homo_energy> 
-4.68 
 
>  <homo_lumo_gap> 
4.969 
 
>  <logP> 
2.204 
 
>  <lumo_energy> 
0.288 
 
>  <melting_point> 
115.03 
 
>  <molecular_refractivity> 
73.84 
 
>  <oscillator_strength_1> 
0.0457 
 
>  <oscillator_strength_2> 
0.1313 
 
>  <oscillator_strength_3> 
0.0129 
 
>  <oscillator_strength_4> 
0.0017 
 
>  <open_babel_can_smiles> 
COc1cccc2c1c1CCNCCc1n2C 
 
>  <mulliken_charges> 
35 
1   -0.32836 
2   -0.210319 
3   -0.155803 
4   -0.170623 
5   -0.21533 
6   -0.333517 
7   -0.334364 
8   -0.136533 
9   -0.127343 
10   0.048814 
11   0.271718 
12   0.304266 
13   0.29806 
14   0.00625 
15   -0.544086 
16   -0.57572 
17   -0.514703 
18   0.169542 
19   0.174783 
20   0.165411 
21   0.14982 
22   0.150425 
23   0.163147 
24   0.116951 
25   0.116 
26   0.118397 
27   0.145686 
28   0.164875 
29   0.134378 
30   0.164085 
31   0.115935 
32   0.126628 
33   0.128869 
34   0.1175 
35   0.29516 
 
>  <lowdin_charges> 
35 
1   -0.348395 
2   -0.278736 
3   -0.157466 
4   -0.211261 
5   -0.24261 
6   -0.280592 
7   -0.282238 
8   -0.202353 
9   -0.198227 
10   -0.066576 
11   0.006166 
12   0.029373 
13   0.098405 
14   -0.056539 
15   -0.368164 
16   -0.033437 
17   -0.200634 
18   0.160424 
19   0.166981 
20   0.153485 
21   0.144126 
22   0.14473 
23   0.15956 
24   0.151215 
25   0.151733 
26   0.158251 
27   0.150327 
28   0.165777 
29   0.150702 
30   0.16001 
31   0.117797 
32   0.141721 
33   0.143147 
34   0.118487 
35   0.254812 
 
$$$$ 
 
