PCCDB-ID:  33701 
public computational chemistry database (PCCDB) project, http://pccdb.org 
 
 22 22  0  0  1  0  0  0  0  0999 V2000 
    1.4041   -0.5670    0.7380 C   0  0  0  0  0  0  0  0  0  0  0  0 
    0.8071    1.6282   -2.2607 C   0  0  0  0  0  0  0  0  0  0  0  0 
    3.7762    0.9100   -1.8463 C   0  0  0  0  0  0  0  0  0  0  0  0 
    2.7168   -0.2444    0.0251 C   0  0  2  0  0  0  0  0  0  0  0  0 
    1.4942    1.8423   -0.9247 C   0  0  0  0  0  0  0  0  0  0  0  0 
    2.8483    1.1778   -0.6348 C   0  0  2  0  0  0  0  0  0  0  0  0 
    3.1081   -1.1810   -1.1227 C   0  0  1  0  0  0  0  0  0  0  0  0 
    0.9836    2.5289   -0.0574 O   0  0  0  0  0  0  0  0  0  0  0  0 
    1.9633   -1.4584   -1.9125 O   0  0  0  0  0  0  0  0  0  0  0  0 
    4.0981   -0.4928   -1.8461 O   0  0  0  0  0  0  0  0  0  0  0  0 
    1.1848    0.1861    1.5007 H   0  0  0  0  0  0  0  0  0  0  0  0 
    1.4710   -1.5442    1.2294 H   0  0  0  0  0  0  0  0  0  0  0  0 
    0.5631   -0.6027    0.0407 H   0  0  0  0  0  0  0  0  0  0  0  0 
    0.8807    0.5837   -2.5775 H   0  0  0  0  0  0  0  0  0  0  0  0 
    1.2840    2.2472   -3.0324 H   0  0  0  0  0  0  0  0  0  0  0  0 
   -0.2369    1.9361   -2.1730 H   0  0  0  0  0  0  0  0  0  0  0  0 
    4.7219    1.4543   -1.7710 H   0  0  0  0  0  0  0  0  0  0  0  0 
    3.3057    1.1786   -2.7988 H   0  0  0  0  0  0  0  0  0  0  0  0 
    3.5349   -0.3185    0.7513 H   0  0  0  0  0  0  0  0  0  0  0  0 
    3.3274    1.8447    0.0867 H   0  0  0  0  0  0  0  0  0  0  0  0 
    3.5689   -2.1173   -0.7830 H   0  0  0  0  0  0  0  0  0  0  0  0 
    2.2730   -1.9504   -2.6902 H   0  0  0  0  0  0  0  0  0  0  0  0 
  1 12  1  0  0  0  0 
  1 11  1  0  0  0  0 
  2 16  1  0  0  0  0 
  2  5  1  0  0  0  0 
  3 10  1  0  0  0  0 
  3 17  1  0  0  0  0 
  3  6  1  0  0  0  0 
  4  1  1  0  0  0  0 
  4 19  1  1  0  0  0 
  5  6  1  0  0  0  0 
  5  8  2  0  0  0  0 
  6  4  1  0  0  0  0 
  6 20  1  1  0  0  0 
  7 21  1  1  0  0  0 
  7  4  1  0  0  0  0 
  9  7  1  0  0  0  0 
 10  7  1  0  0  0  0 
 13  1  1  0  0  0  0 
 14  2  1  0  0  0  0 
 15  2  1  0  0  0  0 
 18  3  1  0  0  0  0 
 22  9  1  0  0  0  0 
M  END 
>  <HBA> 
3 
 
>  <HBD> 
1 
 
>  <TPSA> 
46.53 
 
>  <cid> 
33701 
 
>  <dipole> 
2.57 
 
>  <excitation_energy_1> 
4.263 
 
>  <excitation_energy_2> 
6.012 
 
>  <excitation_energy_3> 
6.113 
 
>  <excitation_energy_4> 
6.473 
 
>  <homo_energy> 
-6.512 
 
>  <homo_lumo_gap> 
6.128 
 
>  <logP> 
0.176 
 
>  <lumo_energy> 
-0.384 
 
>  <melting_point> 
26.41 
 
>  <molecular_refractivity> 
36.1 
 
>  <oscillator_strength_1> 
0.0 
 
>  <oscillator_strength_2> 
0.0083 
 
>  <oscillator_strength_3> 
0.0004 
 
>  <oscillator_strength_4> 
0.0139 
 
>  <open_babel_can_smiles> 
CC(=O)[C@@H]1CO[C@@H]([C@@H]1C)O 
 
>  <mulliken_charges> 
22 
1   -0.455997 
2   -0.554236 
3   -0.027944 
4   -0.11879 
5   0.461103 
6   -0.232825 
7   0.320643 
8   -0.449845 
9   -0.611175 
10   -0.489596 
11   0.168651 
12   0.144538 
13   0.170911 
14   0.194303 
15   0.166713 
16   0.175981 
17   0.151545 
18   0.143268 
19   0.150493 
20   0.164203 
21   0.130712 
22   0.397343 
 
>  <lowdin_charges> 
22 
1   -0.447701 
2   -0.487353 
3   -0.137295 
4   -0.132981 
5   0.16859 
6   -0.179769 
7   0.07736 
8   -0.241684 
9   -0.456696 
10   -0.270665 
11   0.164888 
12   0.153354 
13   0.163138 
14   0.176989 
15   0.170717 
16   0.171388 
17   0.152634 
18   0.142357 
19   0.1564 
20   0.169811 
21   0.136572 
22   0.349947 
 
$$$$ 
 
