PCCDB-ID:  30582 
public computational chemistry database (PCCDB) project, http://pccdb.org 
 
 34 33  0  0  0  0  0  0  0  0999 V2000 
    4.1298    1.9741    0.3246 C   0  0  0  0  0  0  0  0  0  0  0  0 
    6.4476   -3.1135    6.0790 C   0  0  0  0  0  0  0  0  0  0  0  0 
    7.6068    0.0439    2.4263 C   0  0  0  0  0  0  0  0  0  0  0  0 
    2.9917   -0.9587    4.1687 C   0  0  0  0  0  0  0  0  0  0  0  0 
    4.6885    0.5790   -0.0137 C   0  0  0  0  0  0  0  0  0  0  0  0 
    5.6967   -3.6055    4.8270 C   0  0  0  0  0  0  0  0  0  0  0  0 
    6.8802   -0.9577    1.5095 C   0  0  0  0  0  0  0  0  0  0  0  0 
    3.5010   -2.1035    3.2734 C   0  0  0  0  0  0  0  0  0  0  0  0 
    4.4770   -0.4036    1.1077 C   0  0  0  0  0  0  0  0  0  0  0  0 
    5.9011   -2.6908    3.6483 C   0  0  0  0  0  0  0  0  0  0  0  0 
    5.3952   -1.1005    1.8154 C   0  0  0  0  0  0  0  0  0  0  0  0 
    4.9821   -2.0021    2.9339 C   0  0  0  0  0  0  0  0  0  0  0  0 
    4.2395    2.6579   -0.5251 H   0  0  0  0  0  0  0  0  0  0  0  0 
    4.6540    2.4092    1.1828 H   0  0  0  0  0  0  0  0  0  0  0  0 
    3.0639    1.9233    0.5779 H   0  0  0  0  0  0  0  0  0  0  0  0 
    6.3368   -3.8226    6.9075 H   0  0  0  0  0  0  0  0  0  0  0  0 
    6.0658   -2.1408    6.4087 H   0  0  0  0  0  0  0  0  0  0  0  0 
    7.5195   -2.9980    5.8779 H   0  0  0  0  0  0  0  0  0  0  0  0 
    8.6736    0.0978    2.1783 H   0  0  0  0  0  0  0  0  0  0  0  0 
    7.5165   -0.2381    3.4802 H   0  0  0  0  0  0  0  0  0  0  0  0 
    7.1826    1.0482    2.3162 H   0  0  0  0  0  0  0  0  0  0  0  0 
    1.9200   -1.0691    4.3727 H   0  0  0  0  0  0  0  0  0  0  0  0 
    3.1501    0.0179    3.7001 H   0  0  0  0  0  0  0  0  0  0  0  0 
    3.5199   -0.9530    5.1287 H   0  0  0  0  0  0  0  0  0  0  0  0 
    5.7440    0.6723   -0.2851 H   0  0  0  0  0  0  0  0  0  0  0  0 
    4.1703    0.2091   -0.9122 H   0  0  0  0  0  0  0  0  0  0  0  0 
    4.6381   -3.7323    5.0714 H   0  0  0  0  0  0  0  0  0  0  0  0 
    6.0761   -4.6067    4.5695 H   0  0  0  0  0  0  0  0  0  0  0  0 
    7.3713   -1.9351    1.5724 H   0  0  0  0  0  0  0  0  0  0  0  0 
    7.0115   -0.6410    0.4712 H   0  0  0  0  0  0  0  0  0  0  0  0 
    2.9086   -2.1393    2.3523 H   0  0  0  0  0  0  0  0  0  0  0  0 
    3.3040   -3.0549    3.7747 H   0  0  0  0  0  0  0  0  0  0  0  0 
    3.4265   -0.5184    1.3652 H   0  0  0  0  0  0  0  0  0  0  0  0 
    6.9510   -2.5820    3.3857 H   0  0  0  0  0  0  0  0  0  0  0  0 
  1 15  1  0  0  0  0 
  1 14  1  0  0  0  0 
  2 17  1  0  0  0  0 
  2 16  1  0  0  0  0 
  3 20  1  0  0  0  0 
  4 22  1  0  0  0  0 
  4 24  1  0  0  0  0 
  5  1  1  0  0  0  0 
  5  9  1  0  0  0  0 
  6 27  1  0  0  0  0 
  6  2  1  0  0  0  0 
  7 29  1  0  0  0  0 
  7 11  1  0  0  0  0 
  7  3  1  0  0  0  0 
  8 32  1  0  0  0  0 
  8  4  1  0  0  0  0 
  9 33  1  0  0  0  0 
  9 11  2  0  0  0  0 
 10  6  1  0  0  0  0 
 11 12  1  0  0  0  0 
 12  8  1  0  0  0  0 
 12 10  2  0  0  0  0 
 13  1  1  0  0  0  0 
 18  2  1  0  0  0  0 
 19  3  1  0  0  0  0 
 21  3  1  0  0  0  0 
 23  4  1  0  0  0  0 
 25  5  1  0  0  0  0 
 26  5  1  0  0  0  0 
 28  6  1  0  0  0  0 
 30  7  1  0  0  0  0 
 31  8  1  0  0  0  0 
 34 10  1  0  0  0  0 
M  END 
>  <HBA> 
0 
 
>  <HBD> 
0 
 
>  <TPSA> 
0.0 
 
>  <cid> 
30582 
 
>  <dipole> 
0.0 
 
>  <excitation_energy_1> 
4.999 
 
>  <excitation_energy_2> 
5.103 
 
>  <excitation_energy_3> 
5.376 
 
>  <excitation_energy_4> 
5.408 
 
>  <homo_energy> 
-5.527 
 
>  <homo_lumo_gap> 
5.29 
 
>  <logP> 
4.479 
 
>  <lumo_energy> 
-0.237 
 
>  <melting_point> 
-4.13 
 
>  <molecular_refractivity> 
58.85 
 
>  <oscillator_strength_1> 
0.5291 
 
>  <oscillator_strength_2> 
0.0476 
 
>  <oscillator_strength_3> 
0.0008 
 
>  <oscillator_strength_4> 
0.0016 
 
>  <open_babel_can_smiles> 
CC/C(=C\CC)/C(=C/CC)/CC 
 
>  <mulliken_charges> 
34 
1   -0.440901 
2   -0.440874 
3   -0.438734 
4   -0.438445 
5   -0.293601 
6   -0.293613 
7   -0.348214 
8   -0.348142 
9   -0.182973 
10   -0.183098 
11   0.142761 
12   0.142659 
13   0.142352 
14   0.150188 
15   0.1435 
16   0.14232 
17   0.150204 
18   0.143527 
19   0.139053 
20   0.151802 
21   0.146637 
22   0.139008 
23   0.1517 
24   0.146583 
25   0.141354 
26   0.142116 
27   0.141354 
28   0.14211 
29   0.143175 
30   0.1414 
31   0.143178 
32   0.141345 
33   0.120117 
34   0.120153 
 
>  <lowdin_charges> 
34 
1   -0.441412 
2   -0.440249 
3   -0.439856 
4   -0.441224 
5   -0.272248 
6   -0.271099 
7   -0.276555 
8   -0.278138 
9   -0.18178 
10   -0.181789 
11   -0.015461 
12   -0.015518 
13   0.149471 
14   0.150343 
15   0.145452 
16   0.149466 
17   0.149337 
18   0.145344 
19   0.145589 
20   0.14967 
21   0.148033 
22   0.145536 
23   0.150651 
24   0.148474 
25   0.145534 
26   0.148701 
27   0.145459 
28   0.147592 
29   0.14717 
30   0.148099 
31   0.147739 
32   0.14924 
33   0.149201 
34   0.149228 
 
$$$$ 
 
