PCCDB-ID:  15355 
public computational chemistry database (PCCDB) project, http://pccdb.org 
 
 28 27  0  0  0  0  0  0  0  0999 V2000 
    2.4662   -0.8640    1.5563 C   0  0  0  0  0  0  0  0  0  0  0  0 
    3.6967    0.2097    3.3676 C   0  0  0  0  0  0  0  0  0  0  0  0 
    4.4200    4.0175    1.1554 C   0  0  0  0  0  0  0  0  0  0  0  0 
    2.4840    3.2446    2.3444 C   0  0  0  0  0  0  0  0  0  0  0  0 
    6.4484    1.3074    1.6879 C   0  0  0  0  0  0  0  0  0  0  0  0 
    5.9355    0.5012   -0.5553 C   0  0  0  0  0  0  0  0  0  0  0  0 
    3.1662    0.3262    2.0166 N   0  0  0  0  0  0  0  0  0  0  0  0 
    3.7902    2.8632    1.8018 N   0  0  0  0  0  0  0  0  0  0  0  0 
    5.4700    1.2344    0.6123 N   0  0  0  0  0  0  0  0  0  0  0  0 
    3.7631    1.4015    0.8059 P   0  0  0  0  0  0  0  0  0  0  0  0 
    1.6129   -1.0868    2.2138 H   0  0  0  0  0  0  0  0  0  0  0  0 
    3.1137   -1.7575    1.5397 H   0  0  0  0  0  0  0  0  0  0  0  0 
    2.0831   -0.7008    0.5445 H   0  0  0  0  0  0  0  0  0  0  0  0 
    2.8849   -0.0167    4.0745 H   0  0  0  0  0  0  0  0  0  0  0  0 
    4.1555    1.1542    3.6659 H   0  0  0  0  0  0  0  0  0  0  0  0 
    4.4467   -0.5944    3.4560 H   0  0  0  0  0  0  0  0  0  0  0  0 
    4.5582    4.8112    1.9003 H   0  0  0  0  0  0  0  0  0  0  0  0 
    3.8131    4.4344    0.3309 H   0  0  0  0  0  0  0  0  0  0  0  0 
    5.3966    3.7432    0.7543 H   0  0  0  0  0  0  0  0  0  0  0  0 
    2.6238    4.0378    3.0897 H   0  0  0  0  0  0  0  0  0  0  0  0 
    2.0102    2.3907    2.8304 H   0  0  0  0  0  0  0  0  0  0  0  0 
    1.7926    3.6299    1.5726 H   0  0  0  0  0  0  0  0  0  0  0  0 
    7.3792    1.7654    1.3219 H   0  0  0  0  0  0  0  0  0  0  0  0 
    6.7040    0.3126    2.0900 H   0  0  0  0  0  0  0  0  0  0  0  0 
    6.0587    1.9266    2.4983 H   0  0  0  0  0  0  0  0  0  0  0  0 
    6.8311    0.9803   -0.9778 H   0  0  0  0  0  0  0  0  0  0  0  0 
    5.1567    0.4948   -1.3238 H   0  0  0  0  0  0  0  0  0  0  0  0 
    6.1984   -0.5448   -0.3220 H   0  0  0  0  0  0  0  0  0  0  0  0 
  1  7  1  0  0  0  0 
  1 11  1  0  0  0  0 
  2 16  1  0  0  0  0 
  2 15  1  0  0  0  0 
  2 14  1  0  0  0  0 
  3  8  1  0  0  0  0 
  3 17  1  0  0  0  0 
  4 21  1  0  0  0  0 
  4 20  1  0  0  0  0 
  5 24  1  0  0  0  0 
  5 25  1  0  0  0  0 
  6 28  1  0  0  0  0 
  6  9  1  0  0  0  0 
  7  2  1  0  0  0  0 
  8  4  1  0  0  0  0 
  9 10  1  0  0  0  0 
  9  5  1  0  0  0  0 
 10  8  1  0  0  0  0 
 10  7  1  0  0  0  0 
 12  1  1  0  0  0  0 
 13  1  1  0  0  0  0 
 18  3  1  0  0  0  0 
 19  3  1  0  0  0  0 
 22  4  1  0  0  0  0 
 23  5  1  0  0  0  0 
 26  6  1  0  0  0  0 
 27  6  1  0  0  0  0 
M  END 
>  <HBA> 
3 
 
>  <HBD> 
0 
 
>  <TPSA> 
23.31 
 
>  <cid> 
15355 
 
>  <dipole> 
0.99 
 
>  <excitation_energy_1> 
4.89 
 
>  <excitation_energy_2> 
4.923 
 
>  <excitation_energy_3> 
5.094 
 
>  <excitation_energy_4> 
5.238 
 
>  <homo_energy> 
-5.257 
 
>  <homo_lumo_gap> 
6.719 
 
>  <logP> 
0.898 
 
>  <lumo_energy> 
1.461 
 
>  <melting_point> 
-29.94 
 
>  <molecular_refractivity> 
47.62 
 
>  <oscillator_strength_1> 
0.0208 
 
>  <oscillator_strength_2> 
0.0049 
 
>  <oscillator_strength_3> 
0.0725 
 
>  <oscillator_strength_4> 
0.0097 
 
>  <open_babel_can_smiles> 
CN(P(N(C)C)N(C)C)C 
 
>  <mulliken_charges> 
28 
1   -0.297494 
2   -0.305614 
3   -0.307365 
4   -0.307072 
5   -0.305423 
6   -0.297371 
7   -0.51826 
8   -0.554398 
9   -0.518965 
10   0.762846 
11   0.140583 
12   0.131501 
13   0.165088 
14   0.139746 
15   0.172467 
16   0.13446 
17   0.142554 
18   0.129254 
19   0.168807 
20   0.14239 
21   0.169224 
22   0.128944 
23   0.139644 
24   0.134583 
25   0.17254 
26   0.140585 
27   0.164971 
28   0.131775 
 
>  <lowdin_charges> 
28 
1   -0.350738 
2   -0.360649 
3   -0.361 
4   -0.362241 
5   -0.360883 
6   -0.35038 
7   -0.33949 
8   -0.358535 
9   -0.342665 
10   0.56725 
11   0.140516 
12   0.130345 
13   0.161386 
14   0.142401 
15   0.162893 
16   0.133876 
17   0.146145 
18   0.129924 
19   0.16194 
20   0.145697 
21   0.163624 
22   0.130027 
23   0.14164 
24   0.133231 
25   0.163604 
26   0.140478 
27   0.162805 
28   0.128802 
 
$$$$ 
 
