PCCDB-ID:  36745 
public computational chemistry database (PCCDB) project, http://pccdb.org 
 
 20 20  0  0  0  0  0  0  0  0999 V2000 
    1.0439    0.0987    0.2441 C   0  0  0  0  0  0  0  0  0  0  0  0 
    2.7953   -1.7224    0.1179 C   0  0  0  0  0  0  0  0  0  0  0  0 
    3.0302    1.8330   -1.6509 C   0  0  0  0  0  0  0  0  0  0  0  0 
    3.5915    1.8455   -3.0951 C   0  0  0  0  0  0  0  0  0  0  0  0 
    3.4768   -0.3054   -2.3944 C   0  0  0  0  0  0  0  0  0  0  0  0 
    2.5333   -0.2150   -0.0109 C   0  0  0  0  0  0  0  0  0  0  0  0 
    3.0023    0.3465   -1.3279 C   0  0  0  0  0  0  0  0  0  0  0  0 
    3.8471    0.4659   -3.4639 O   0  0  0  0  0  0  0  0  0  0  0  0 
    0.7377   -0.2501    1.2376 H   0  0  0  0  0  0  0  0  0  0  0  0 
    0.4123   -0.3990   -0.5016 H   0  0  0  0  0  0  0  0  0  0  0  0 
    0.8404    1.1741    0.1919 H   0  0  0  0  0  0  0  0  0  0  0  0 
    2.4923   -2.0840    1.1068 H   0  0  0  0  0  0  0  0  0  0  0  0 
    3.8568   -1.9568   -0.0186 H   0  0  0  0  0  0  0  0  0  0  0  0 
    2.2243   -2.2865   -0.6302 H   0  0  0  0  0  0  0  0  0  0  0  0 
    2.0354    2.2948   -1.5973 H   0  0  0  0  0  0  0  0  0  0  0  0 
    3.6713    2.3897   -0.9525 H   0  0  0  0  0  0  0  0  0  0  0  0 
    4.5353    2.3931   -3.1827 H   0  0  0  0  0  0  0  0  0  0  0  0 
    2.8833    2.2575   -3.8215 H   0  0  0  0  0  0  0  0  0  0  0  0 
    3.6250   -1.3666   -2.5512 H   0  0  0  0  0  0  0  0  0  0  0  0 
    3.1061    0.2901    0.7852 H   0  0  0  0  0  0  0  0  0  0  0  0 
  1  9  1  0  0  0  0 
  2 12  1  0  0  0  0 
  3 15  1  0  0  0  0 
  3  7  1  0  0  0  0 
  3 16  1  0  0  0  0 
  4  3  1  0  0  0  0 
  5  7  2  0  0  0  0 
  6  2  1  0  0  0  0 
  6  1  1  0  0  0  0 
  6 20  1  0  0  0  0 
  7  6  1  0  0  0  0 
  8  4  1  0  0  0  0 
  8  5  1  0  0  0  0 
 10  1  1  0  0  0  0 
 11  1  1  0  0  0  0 
 13  2  1  0  0  0  0 
 14  2  1  0  0  0  0 
 17  4  1  0  0  0  0 
 18  4  1  0  0  0  0 
 19  5  1  0  0  0  0 
M  END 
>  <HBA> 
1 
 
>  <HBD> 
0 
 
>  <TPSA> 
9.23 
 
>  <cid> 
36745 
 
>  <dipole> 
1.33 
 
>  <excitation_energy_1> 
4.883 
 
>  <excitation_energy_2> 
5.328 
 
>  <excitation_energy_3> 
5.47 
 
>  <excitation_energy_4> 
5.504 
 
>  <homo_energy> 
-5.325 
 
>  <homo_lumo_gap> 
6.542 
 
>  <logP> 
1.947 
 
>  <lumo_energy> 
1.216 
 
>  <melting_point> 
-0.39 
 
>  <molecular_refractivity> 
34.26 
 
>  <oscillator_strength_1> 
0.0158 
 
>  <oscillator_strength_2> 
0.0509 
 
>  <oscillator_strength_3> 
0.0191 
 
>  <oscillator_strength_4> 
0.003 
 
>  <open_babel_can_smiles> 
CC(C1=COCC1)C 
 
>  <mulliken_charges> 
20 
1   -0.440481 
2   -0.451311 
3   -0.364119 
4   -0.03082 
5   0.077652 
6   -0.131194 
7   0.095424 
8   -0.477243 
9   0.139785 
10   0.145069 
11   0.14171 
12   0.141648 
13   0.146848 
14   0.143457 
15   0.149829 
16   0.14647 
17   0.149343 
18   0.149105 
19   0.142104 
20   0.126725 
 
>  <lowdin_charges> 
20 
1   -0.442786 
2   -0.443134 
3   -0.288551 
4   -0.122152 
5   -0.067198 
6   -0.111567 
7   -0.084672 
8   -0.227219 
9   0.147074 
10   0.150209 
11   0.146017 
12   0.149825 
13   0.149553 
14   0.148616 
15   0.148622 
16   0.149385 
17   0.147587 
18   0.148211 
19   0.161264 
20   0.140914 
 
$$$$ 
 
