PCCDB-ID:  22644 
public computational chemistry database (PCCDB) project, http://pccdb.org 
 
 32 33  0  0  1  0  0  0  0  0999 V2000 
    0.7067    0.1999    0.0122 C   0  0  0  0  0  0  0  0  0  0  0  0 
    8.1742    3.1990    2.2779 C   0  0  0  0  0  0  0  0  0  0  0  0 
    9.1516   -0.8584    1.0990 C   0  0  0  0  0  0  0  0  0  0  0  0 
    2.9817    1.2611    0.4358 C   0  0  0  0  0  0  0  0  0  0  0  0 
    5.3613    2.0769    0.7658 C   0  0  0  0  0  0  0  0  0  0  0  0 
    6.3507   -0.5082    0.8337 C   0  0  0  0  0  0  0  0  0  0  0  0 
    4.0426   -1.4891    0.4784 C   0  0  0  0  0  0  0  0  0  0  0  0 
    2.2218    0.0198   -0.0698 C   0  0  1  0  0  0  0  0  0  0  0  0 
    4.4677    1.0055    0.6157 C   0  0  0  0  0  0  0  0  0  0  0  0 
    4.9738   -0.2973    0.6598 C   0  0  0  0  0  0  0  0  0  0  0  0 
    6.7241    1.8793    0.9411 C   0  0  0  0  0  0  0  0  0  0  0  0 
    7.2349    0.5610    0.9685 C   0  0  0  0  0  0  0  0  0  0  0  0 
    2.6189   -1.1998    0.6500 N   0  0  0  0  0  0  0  0  0  0  0  0 
    7.5545    2.9739    1.0112 O   0  0  0  0  0  0  0  0  0  0  0  0 
    8.5891    0.4426    1.1231 O   0  0  0  0  0  0  0  0  0  0  0  0 
    0.3824    1.0807   -0.5538 H   0  0  0  0  0  0  0  0  0  0  0  0 
    0.3869    0.3387    1.0537 H   0  0  0  0  0  0  0  0  0  0  0  0 
    0.1944   -0.6823   -0.3833 H   0  0  0  0  0  0  0  0  0  0  0  0 
    8.8328    2.3705    2.5569 H   0  0  0  0  0  0  0  0  0  0  0  0 
    7.4193    3.3480    3.0622 H   0  0  0  0  0  0  0  0  0  0  0  0 
    8.7638    4.1125    2.1682 H   0  0  0  0  0  0  0  0  0  0  0  0 
   10.2297   -0.7203    1.2017 H   0  0  0  0  0  0  0  0  0  0  0  0 
    8.9403   -1.3710    0.1513 H   0  0  0  0  0  0  0  0  0  0  0  0 
    8.7846   -1.4752    1.9305 H   0  0  0  0  0  0  0  0  0  0  0  0 
    2.5413    1.5757    1.3964 H   0  0  0  0  0  0  0  0  0  0  0  0 
    2.8280    2.1041   -0.2519 H   0  0  0  0  0  0  0  0  0  0  0  0 
    5.0030    3.1029    0.7328 H   0  0  0  0  0  0  0  0  0  0  0  0 
    6.7230   -1.5280    0.8561 H   0  0  0  0  0  0  0  0  0  0  0  0 
    4.3161   -2.2930    1.1731 H   0  0  0  0  0  0  0  0  0  0  0  0 
    4.1789   -1.9049   -0.5319 H   0  0  0  0  0  0  0  0  0  0  0  0 
    2.4976   -0.1478   -1.1214 H   0  0  0  0  0  0  0  0  0  0  0  0 
    2.4286   -1.0596    1.6437 H   0  0  0  0  0  0  0  0  0  0  0  0 
  1 17  1  0  0  0  0 
  2 19  1  0  0  0  0 
  2 20  1  0  0  0  0 
  3 15  1  0  0  0  0 
  3 22  1  0  0  0  0 
  3 24  1  0  0  0  0 
  4  9  1  0  0  0  0 
  4 25  1  0  0  0  0 
  5 11  2  0  0  0  0 
  6 28  1  0  0  0  0 
  6 12  2  0  0  0  0 
  7 13  1  0  0  0  0 
  7 10  1  0  0  0  0 
  7 29  1  0  0  0  0 
  8 31  1  6  0  0  0 
  8  1  1  0  0  0  0 
  8  4  1  0  0  0  0 
  8 13  1  0  0  0  0 
  9 10  2  0  0  0  0 
  9  5  1  0  0  0  0 
 10  6  1  0  0  0  0 
 11 12  1  0  0  0  0 
 11 14  1  0  0  0  0 
 12 15  1  0  0  0  0 
 13 32  1  0  0  0  0 
 14  2  1  0  0  0  0 
 16  1  1  0  0  0  0 
 18  1  1  0  0  0  0 
 21  2  1  0  0  0  0 
 23  3  1  0  0  0  0 
 26  4  1  0  0  0  0 
 27  5  1  0  0  0  0 
 30  7  1  0  0  0  0 
M  END 
>  <HBA> 
3 
 
>  <HBD> 
1 
 
>  <TPSA> 
30.49 
 
>  <cid> 
22644 
 
>  <dipole> 
1.93 
 
>  <excitation_energy_1> 
4.759 
 
>  <excitation_energy_2> 
5.107 
 
>  <excitation_energy_3> 
5.148 
 
>  <excitation_energy_4> 
5.296 
 
>  <homo_energy> 
-5.521 
 
>  <homo_lumo_gap> 
5.682 
 
>  <logP> 
2.067 
 
>  <lumo_energy> 
0.161 
 
>  <melting_point> 
72.64 
 
>  <molecular_refractivity> 
63.57 
 
>  <oscillator_strength_1> 
0.0718 
 
>  <oscillator_strength_2> 
0.0006 
 
>  <oscillator_strength_3> 
0.0201 
 
>  <oscillator_strength_4> 
0.0171 
 
>  <open_babel_can_smiles> 
COc1cc2C[C@H](C)NCc2cc1OC 
 
>  <mulliken_charges> 
32 
1   -0.443956 
2   -0.208545 
3   -0.212846 
4   -0.346067 
5   -0.24777 
6   -0.273665 
7   -0.225466 
8   0.023742 
9   0.122449 
10   0.098386 
11   0.319626 
12   0.352569 
13   -0.533462 
14   -0.523509 
15   -0.51166 
16   0.141871 
17   0.133612 
18   0.157902 
19   0.160225 
20   0.135342 
21   0.156056 
22   0.169095 
23   0.153734 
24   0.149586 
25   0.13728 
26   0.143253 
27   0.125802 
28   0.123506 
29   0.144446 
30   0.156795 
31   0.135126 
32   0.286541 
 
>  <lowdin_charges> 
32 
1   -0.445935 
2   -0.277021 
3   -0.275958 
4   -0.29085 
5   -0.177398 
6   -0.218704 
7   -0.208813 
8   -0.061524 
9   -0.03039 
10   -0.033207 
11   0.06837 
12   0.077949 
13   -0.352261 
14   -0.225296 
15   -0.197641 
16   0.151505 
17   0.143244 
18   0.159323 
19   0.149271 
20   0.137228 
21   0.154712 
22   0.160286 
23   0.146525 
24   0.144445 
25   0.145019 
26   0.152327 
27   0.161427 
28   0.15759 
29   0.151179 
30   0.149356 
31   0.138651 
32   0.246591 
 
$$$$ 
 
