PCCDB-ID:  19456 
public computational chemistry database (PCCDB) project, http://pccdb.org 
 
 18 17  0  0  0  0  0  0  0  0999 V2000 
    2.0029    1.5051    0.4554 C   0  0  0  0  0  0  0  0  0  0  0  0 
    2.0627   -1.3430    2.0789 C   0  0  0  0  0  0  0  0  0  0  0  0 
    2.6462    0.1403    0.1896 C   0  0  0  0  0  0  0  0  0  0  0  0 
    4.3986   -0.9421    1.5855 C   0  0  0  0  0  0  0  0  0  0  0  0 
    4.6701   -2.0098    2.2513 N   0  0  0  0  0  0  0  0  0  0  0  0 
    5.3354   -0.0944    0.9594 N   0  0  0  0  0  0  0  0  0  0  0  0 
    3.0808   -0.5397    1.4151 N   0  0  0  0  0  0  0  0  0  0  0  0 
    1.6594    1.9565   -0.4830 H   0  0  0  0  0  0  0  0  0  0  0  0 
    2.7154    2.1924    0.9261 H   0  0  0  0  0  0  0  0  0  0  0  0 
    1.1379    1.4174    1.1220 H   0  0  0  0  0  0  0  0  0  0  0  0 
    1.1277   -0.7749    2.1087 H   0  0  0  0  0  0  0  0  0  0  0  0 
    2.3816   -1.5699    3.0965 H   0  0  0  0  0  0  0  0  0  0  0  0 
    1.8842   -2.2969    1.5608 H   0  0  0  0  0  0  0  0  0  0  0  0 
    3.5091    0.2517   -0.4706 H   0  0  0  0  0  0  0  0  0  0  0  0 
    1.9309   -0.5079   -0.3391 H   0  0  0  0  0  0  0  0  0  0  0  0 
    5.6769   -2.0936    2.4032 H   0  0  0  0  0  0  0  0  0  0  0  0 
    6.2896   -0.3091    1.2226 H   0  0  0  0  0  0  0  0  0  0  0  0 
    5.1423    0.8953    1.0756 H   0  0  0  0  0  0  0  0  0  0  0  0 
  1  9  1  0  0  0  0 
  1 10  1  0  0  0  0 
  2 11  1  0  0  0  0 
  2 12  1  0  0  0  0 
  3  1  1  0  0  0  0 
  3  7  1  0  0  0  0 
  4  5  1  0  0  0  0 
  5 16  1  0  0  0  0 
  6 18  1  0  0  0  0 
  6 17  1  0  0  0  0 
  6  4  2  0  0  0  0 
  7  4  1  0  0  0  0 
  7  2  1  0  0  0  0 
  8  1  1  0  0  0  0 
 13  2  1  0  0  0  0 
 14  3  1  0  0  0  0 
 15  3  1  0  0  0  0 
M  RAD  1   5   2 
M  END 
>  <HBA> 
3 
 
>  <HBD> 
2 
 
>  <TPSA> 
53.11 
 
>  <cid> 
19456 
 
>  <dipole> 
2.8 
 
>  <excitation_energy_1> 
4.942 
 
>  <excitation_energy_2> 
5.607 
 
>  <excitation_energy_3> 
5.753 
 
>  <excitation_energy_4> 
5.875 
 
>  <homo_energy> 
-5.644 
 
>  <homo_lumo_gap> 
7.061 
 
>  <logP> 
0.632 
 
>  <lumo_energy> 
1.418 
 
>  <melting_point> 
62.95 
 
>  <molecular_refractivity> 
30.54 
 
>  <oscillator_strength_1> 
0.017 
 
>  <oscillator_strength_2> 
0.0356 
 
>  <oscillator_strength_3> 
0.0087 
 
>  <oscillator_strength_4> 
0.0551 
 
>  <open_babel_can_smiles> 
CN(C(=[NH2])[NH])CC 
 
>  <mulliken_charges> 
18 
1   -0.434329 
2   -0.293931 
3   -0.1539 
4   0.57357 
5   -0.653428 
6   -0.752692 
7   -0.407022 
8   0.143674 
9   0.139861 
10   0.152442 
11   0.137335 
12   0.183759 
13   0.150446 
14   0.172394 
15   0.142634 
16   0.259179 
17   0.318007 
18   0.322001 
 
>  <lowdin_charges> 
18 
1   -0.453312 
2   -0.34761 
3   -0.201333 
4   0.121102 
5   -0.482264 
6   -0.508178 
7   -0.132438 
8   0.151941 
9   0.146659 
10   0.152037 
11   0.144513 
12   0.171649 
13   0.143979 
14   0.161946 
15   0.142932 
16   0.240612 
17   0.273427 
18   0.274336 
 
$$$$ 
 
