PCCDB-ID:  42645 
public computational chemistry database (PCCDB) project, http://pccdb.org 
 
 27 27  0  0  0  0  0  0  0  0999 V2000 
    0.6569    1.0878    0.3176 C   0  0  0  0  0  0  0  0  0  0  0  0 
    5.1944    3.1216   -0.6562 C   0  0  0  0  0  0  0  0  0  0  0  0 
    7.2050   -3.9081    1.5425 C   0  0  0  0  0  0  0  0  0  0  0  0 
    2.9589    2.0379   -0.1554 C   0  0  0  0  0  0  0  0  0  0  0  0 
    2.7543   -0.3204    0.2725 C   0  0  0  0  0  0  0  0  0  0  0  0 
    4.9282    0.6484   -0.2346 C   0  0  0  0  0  0  0  0  0  0  0  0 
    2.1511    0.9356    0.1500 C   0  0  0  0  0  0  0  0  0  0  0  0 
    4.3394    1.9138   -0.3487 C   0  0  0  0  0  0  0  0  0  0  0  0 
    4.1260   -0.4415    0.0821 C   0  0  0  0  0  0  0  0  0  0  0  0 
    5.7154   -2.0176    0.8894 C   0  0  0  0  0  0  0  0  0  0  0  0 
    5.2715   -4.2240    0.0538 N   0  0  0  0  0  0  0  0  0  0  0  0 
    6.0510   -3.3849    0.8149 N   0  0  0  0  0  0  0  0  0  0  0  0 
    6.3475   -1.2336    1.5574 O   0  0  0  0  0  0  0  0  0  0  0  0 
    5.6616   -5.3750    0.0750 O   0  0  0  0  0  0  0  0  0  0  0  0 
    4.6341   -1.7508    0.1348 O   0  0  0  0  0  0  0  0  0  0  0  0 
    0.3870    2.1173    0.5738 H   0  0  0  0  0  0  0  0  0  0  0  0 
    0.2724    0.4303    1.1047 H   0  0  0  0  0  0  0  0  0  0  0  0 
    0.1262    0.8300   -0.6084 H   0  0  0  0  0  0  0  0  0  0  0  0 
    4.5813    3.9854   -0.9309 H   0  0  0  0  0  0  0  0  0  0  0  0 
    5.8870    2.9222   -1.4820 H   0  0  0  0  0  0  0  0  0  0  0  0 
    5.8017    3.4079    0.2120 H   0  0  0  0  0  0  0  0  0  0  0  0 
    7.6709   -3.0757    2.0641 H   0  0  0  0  0  0  0  0  0  0  0  0 
    7.9042   -4.3667    0.8382 H   0  0  0  0  0  0  0  0  0  0  0  0 
    6.8767   -4.6738    2.2505 H   0  0  0  0  0  0  0  0  0  0  0  0 
    2.5000    3.0202   -0.2449 H   0  0  0  0  0  0  0  0  0  0  0  0 
    2.1718   -1.2065    0.5063 H   0  0  0  0  0  0  0  0  0  0  0  0 
    5.9951    0.5200   -0.3767 H   0  0  0  0  0  0  0  0  0  0  0  0 
  1 16  1  0  0  0  0 
  1 17  1  0  0  0  0 
  2  8  1  0  0  0  0 
  2 21  1  0  0  0  0 
  3 22  1  0  0  0  0 
  3 24  1  0  0  0  0 
  4  7  2  0  0  0  0 
  5 26  1  0  0  0  0 
  6  9  1  0  0  0  0 
  7  5  1  0  0  0  0 
  7  1  1  0  0  0  0 
  8  6  2  0  0  0  0 
  8  4  1  0  0  0  0 
  9 15  1  0  0  0  0 
  9  5  2  0  0  0  0 
 10 13  2  0  0  0  0 
 11 14  1  0  0  0  0 
 11 12  1  0  0  0  0 
 12 10  1  0  0  0  0 
 12  3  1  0  0  0  0 
 15 10  1  0  0  0  0 
 18  1  1  0  0  0  0 
 19  2  1  0  0  0  0 
 20  2  1  0  0  0  0 
 23  3  1  0  0  0  0 
 25  4  1  0  0  0  0 
 27  6  1  0  0  0  0 
M  RAD  2  11   2  14   2 
M  END 
>  <HBA> 
5 
 
>  <HBD> 
0 
 
>  <TPSA> 
58.97 
 
>  <cid> 
42645 
 
>  <dipole> 
2.15 
 
>  <excitation_energy_1> 
2.984 
 
>  <excitation_energy_2> 
3.909 
 
>  <excitation_energy_3> 
3.93 
 
>  <excitation_energy_4> 
5.146 
 
>  <homo_energy> 
-6.574 
 
>  <homo_lumo_gap> 
4.621 
 
>  <logP> 
2.415 
 
>  <lumo_energy> 
-1.954 
 
>  <melting_point> 
70.85 
 
>  <molecular_refractivity> 
55.9 
 
>  <oscillator_strength_1> 
0.0011 
 
>  <oscillator_strength_2> 
0.0188 
 
>  <oscillator_strength_3> 
0.0024 
 
>  <oscillator_strength_4> 
0.001 
 
>  <open_babel_can_smiles> 
[O][N]N(C(=O)Oc1cc(C)cc(c1)C)C 
 
>  <mulliken_charges> 
27 
1   -0.530081 
2   -0.529959 
3   -0.326994 
4   -0.227406 
5   -0.216126 
6   -0.187754 
7   0.172243 
8   0.165419 
9   0.34636 
10   0.81553 
11   0.198452 
12   -0.344472 
13   -0.471522 
14   -0.321458 
15   -0.512246 
16   0.158745 
17   0.16177 
18   0.169996 
19   0.157036 
20   0.162417 
21   0.171696 
22   0.208735 
23   0.188323 
24   0.188704 
25   0.118437 
26   0.14021 
27   0.143945 
 
>  <lowdin_charges> 
27 
1   -0.441501 
2   -0.442529 
3   -0.369923 
4   -0.182058 
5   -0.18506 
6   -0.178952 
7   0.011987 
8   0.011743 
9   0.107747 
10   0.226316 
11   0.086153 
12   -0.04593 
13   -0.258828 
14   -0.204768 
15   -0.136112 
16   0.158285 
17   0.161871 
18   0.164824 
19   0.158656 
20   0.161919 
21   0.16615 
22   0.190643 
23   0.173834 
24   0.173516 
25   0.153995 
26   0.169157 
27   0.168864 
 
$$$$ 
 
