PCCDB-ID:  67036 
public computational chemistry database (PCCDB) project, http://pccdb.org 
 
 16 16  0  0  0  0  0  0  0  0999 V2000 
   -1.2893   -0.6810   -0.0169 C   0  0  0  0  0  0  0  0  0  0  0  0 
   -1.3310    0.6937   -0.0216 C   0  0  0  0  0  0  0  0  0  0  0  0 
   -0.0645   -1.3764    0.0534 C   0  0  0  0  0  0  0  0  0  0  0  0 
   -0.1229    1.4216    0.0442 C   0  0  0  0  0  0  0  0  0  0  0  0 
    1.1350    0.7721    0.1165 C   0  0  0  0  0  0  0  0  0  0  0  0 
    1.1709   -0.6489    0.1219 C   0  0  0  0  0  0  0  0  0  0  0  0 
   -0.1689   -2.7608    0.0488 N   0  0  0  0  0  0  0  0  0  0  0  0 
    2.2623    1.6559    0.1794 N   0  0  0  0  0  0  0  0  0  0  0  0 
   -0.1269    2.7637    0.0405 O   0  0  0  0  0  0  0  0  0  0  0  0 
    2.3147   -1.2997    0.1887 O   0  0  0  0  0  0  0  0  0  0  0  0 
    0.9011   -3.4076    0.1085 O   0  0  0  0  0  0  0  0  0  0  0  0 
    3.3609    1.1233    0.2437 O   0  0  0  0  0  0  0  0  0  0  0  0 
   -2.1955   -1.2769   -0.0672 H   0  0  0  0  0  0  0  0  0  0  0  0 
   -2.2774    1.2255   -0.0761 H   0  0  0  0  0  0  0  0  0  0  0  0 
   -1.0430    3.0829   -0.0113 H   0  0  0  0  0  0  0  0  0  0  0  0 
    2.0732   -2.2756    0.1794 H   0  0  0  0  0  0  0  0  0  0  0  0 
  1  3  1  0  0  0  0 
  2  1  2  0  0  0  0 
  2  4  1  0  0  0  0 
  3  6  2  0  0  0  0 
  4  5  2  0  0  0  0 
  5  6  1  0  0  0  0 
  5  8  1  0  0  0  0 
  6 10  1  0  0  0  0 
  7  3  1  0  0  0  0 
  7 11  1  0  0  0  0 
  8 12  2  0  0  0  0 
  9  4  1  0  0  0  0 
 13  1  1  0  0  0  0 
 14  2  1  0  0  0  0 
 15  9  1  0  0  0  0 
 16 10  1  0  0  0  0 
M  RAD  2   7   2  11   2 
M  END 
>  <HBA> 
6 
 
>  <HBD> 
2 
 
>  <TPSA> 
99.32 
 
>  <cid> 
67036 
 
>  <dipole> 
6.08 
 
>  <excitation_energy_1> 
1.35 
 
>  <excitation_energy_2> 
1.668 
 
>  <excitation_energy_3> 
2.258 
 
>  <excitation_energy_4> 
3.178 
 
>  <homo_energy> 
-5.709 
 
>  <homo_lumo_gap> 
2.591 
 
>  <logP> 
1.894 
 
>  <lumo_energy> 
-3.118 
 
>  <melting_point> 
140.45 
 
>  <molecular_refractivity> 
41.4 
 
>  <oscillator_strength_1> 
0.0003 
 
>  <oscillator_strength_2> 
0.0003 
 
>  <oscillator_strength_3> 
0.0003 
 
>  <oscillator_strength_4> 
0.0001 
 
>  <open_babel_can_smiles> 
[O][N]c1ccc(c(c1O)N=O)O 
 
>  <mulliken_charges> 
16 
1   -0.117321 
2   -0.216904 
3   0.179732 
4   0.371279 
5   0.155061 
6   0.375445 
7   -0.072254 
8   -0.066143 
9   -0.583673 
10   -0.58722 
11   -0.372263 
12   -0.26994 
13   0.178609 
14   0.147561 
15   0.42539 
16   0.452641 
 
>  <lowdin_charges> 
16 
1   -0.086317 
2   -0.232797 
3   -0.079955 
4   0.155747 
5   -0.083017 
6   0.150649 
7   0.047486 
8   0.047027 
9   -0.307271 
10   -0.292809 
11   -0.245005 
12   -0.165947 
13   0.186644 
14   0.168228 
15   0.368592 
16   0.368746 
 
$$$$ 
 
