PCCDB-ID:  44607 
public computational chemistry database (PCCDB) project, http://pccdb.org 
 
 30 30  0  0  1  0  0  0  0  0999 V2000 
   -1.1593    1.1073    0.3200 C   0  0  0  0  0  0  0  0  0  0  0  0 
    1.8939    4.5489    2.2012 C   0  0  0  0  0  0  0  0  0  0  0  0 
    1.1259   -1.1789   -1.7361 C   0  0  0  0  0  0  0  0  0  0  0  0 
    2.2582   -0.3817   -1.8680 C   0  0  0  0  0  0  0  0  0  0  0  0 
    0.0238   -0.6906   -1.0269 C   0  0  0  0  0  0  0  0  0  0  0  0 
    2.2944    0.8949   -1.2980 C   0  0  0  0  0  0  0  0  0  0  0  0 
    2.2677    3.4554   -0.0897 C   0  0  0  0  0  0  0  0  0  0  0  0 
    0.0267    0.5770   -0.4453 C   0  0  0  0  0  0  0  0  0  0  0  0 
    1.8934    4.7232    0.6873 C   0  0  2  0  0  0  0  0  0  0  0  0 
    1.1857    1.3692   -0.5915 C   0  0  0  0  0  0  0  0  0  0  0  0 
    4.0052    5.8833    0.4195 C   0  0  0  0  0  0  0  0  0  0  0  0 
    4.6973    4.8958    0.8329 N   0  0  0  0  0  0  0  0  0  0  0  0 
    4.4242    7.1223    0.0462 O   0  0  0  0  0  0  0  0  0  0  0  0 
    1.1252    2.6059   -0.0045 O   0  0  0  0  0  0  0  0  0  0  0  0 
    2.6784    5.8674    0.2620 O   0  0  0  0  0  0  0  0  0  0  0  0 
   -1.9758    0.3788    0.3259 H   0  0  0  0  0  0  0  0  0  0  0  0 
   -1.5332    2.0406   -0.1176 H   0  0  0  0  0  0  0  0  0  0  0  0 
   -0.8960    1.3353    1.3602 H   0  0  0  0  0  0  0  0  0  0  0  0 
    1.1953    3.7479    2.4631 H   0  0  0  0  0  0  0  0  0  0  0  0 
    1.5637    5.4708    2.6908 H   0  0  0  0  0  0  0  0  0  0  0  0 
    2.8886    4.2844    2.5660 H   0  0  0  0  0  0  0  0  0  0  0  0 
    1.0939   -2.1705   -2.1784 H   0  0  0  0  0  0  0  0  0  0  0  0 
    3.1246   -0.7430   -2.4157 H   0  0  0  0  0  0  0  0  0  0  0  0 
   -0.8648   -1.3093   -0.9209 H   0  0  0  0  0  0  0  0  0  0  0  0 
    3.1829    1.5060   -1.4074 H   0  0  0  0  0  0  0  0  0  0  0  0 
    3.1488    2.9711    0.3383 H   0  0  0  0  0  0  0  0  0  0  0  0 
    2.4763    3.7148   -1.1368 H   0  0  0  0  0  0  0  0  0  0  0  0 
    0.8908    5.0075    0.3557 H   0  0  0  0  0  0  0  0  0  0  0  0 
    5.6922    5.1130    0.8842 H   0  0  0  0  0  0  0  0  0  0  0  0 
    5.3899    7.1551    0.1247 H   0  0  0  0  0  0  0  0  0  0  0  0 
  1 16  1  0  0  0  0 
  1 18  1  0  0  0  0 
  2 19  1  0  0  0  0 
  2 21  1  0  0  0  0 
  2 20  1  0  0  0  0 
  3  5  1  0  0  0  0 
  4  3  2  0  0  0  0 
  4  6  1  0  0  0  0 
  5 24  1  0  0  0  0 
  5  8  2  0  0  0  0 
  6 10  2  0  0  0  0 
  7 14  1  0  0  0  0 
  7 26  1  0  0  0  0 
  7  9  1  0  0  0  0 
  8  1  1  0  0  0  0 
  9 28  1  6  0  0  0 
  9  2  1  0  0  0  0 
 10  8  1  0  0  0  0 
 10 14  1  0  0  0  0 
 11 12  2  0  0  0  0 
 12 29  1  0  0  0  0 
 13 30  1  0  0  0  0 
 13 11  1  0  0  0  0 
 15 11  1  0  0  0  0 
 15  9  1  0  0  0  0 
 17  1  1  0  0  0  0 
 22  3  1  0  0  0  0 
 23  4  1  0  0  0  0 
 25  6  1  0  0  0  0 
 27  7  1  0  0  0  0 
M  END 
>  <HBA> 
4 
 
>  <HBD> 
1 
 
>  <TPSA> 
61.55 
 
>  <cid> 
44607 
 
>  <dipole> 
2.45 
 
>  <excitation_energy_1> 
4.967 
 
>  <excitation_energy_2> 
5.048 
 
>  <excitation_energy_3> 
5.527 
 
>  <excitation_energy_4> 
5.64 
 
>  <homo_energy> 
-5.714 
 
>  <homo_lumo_gap> 
5.976 
 
>  <logP> 
2.558 
 
>  <lumo_energy> 
0.261 
 
>  <melting_point> 
88.29 
 
>  <molecular_refractivity> 
56.7 
 
>  <oscillator_strength_1> 
0.0001 
 
>  <oscillator_strength_2> 
0.0339 
 
>  <oscillator_strength_3> 
0.0012 
 
>  <oscillator_strength_4> 
0.002 
 
>  <open_babel_can_smiles> 
C[C@@H](OC(=N)O)COc1ccccc1C 
 
>  <mulliken_charges> 
30 
1   -0.513986 
2   -0.475405 
3   -0.127732 
4   -0.142526 
5   -0.19057 
6   -0.193354 
7   -0.053694 
8   0.123277 
9   0.130348 
10   0.328466 
11   0.648976 
12   -0.630266 
13   -0.564994 
14   -0.536715 
15   -0.463972 
16   0.146665 
17   0.162905 
18   0.161589 
19   0.165592 
20   0.154347 
21   0.184259 
22   0.121905 
23   0.12565 
24   0.119784 
25   0.138827 
26   0.183692 
27   0.146794 
28   0.164086 
29   0.277453 
30   0.408597 
 
>  <lowdin_charges> 
30 
1   -0.436658 
2   -0.460629 
3   -0.176883 
4   -0.153567 
5   -0.161515 
6   -0.213505 
7   -0.143 
8   -0.025465 
9   0.012768 
10   0.09645 
11   0.19448 
12   -0.473479 
13   -0.358663 
14   -0.206142 
15   -0.176449 
16   0.154215 
17   0.161559 
18   0.159086 
19   0.166749 
20   0.157876 
21   0.170027 
22   0.154592 
23   0.156664 
24   0.154352 
25   0.164852 
26   0.163023 
27   0.144541 
28   0.159883 
29   0.255823 
30   0.359014 
 
$$$$ 
 
