PCCDB-ID:  40380 
public computational chemistry database (PCCDB) project, http://pccdb.org 
 
 17 17  0  0  0  0  0  0  0  0999 V2000 
    3.4212   -0.5807   -0.8630 C   0  0  0  0  0  0  0  0  0  0  0  0 
    2.1557    3.2377   -0.0579 C   0  0  0  0  0  0  0  0  0  0  0  0 
    2.2970    0.0435   -0.0158 C   0  0  0  0  0  0  0  0  0  0  0  0 
    3.7657    2.1227    2.9774 C   0  0  0  0  0  0  0  0  0  0  0  0 
    2.7480    2.3765    1.0278 C   0  0  0  0  0  0  0  0  0  0  0  0 
    2.7868    1.0028    1.0332 C   0  0  0  0  0  0  0  0  0  0  0  0 
    3.3035    2.9950    2.1343 N   0  0  0  0  0  0  0  0  0  0  0  0 
    3.5649    0.4558    2.5008 S   0  0  0  0  0  0  0  0  0  0  0  0 
    3.0048   -1.2492   -1.6249 H   0  0  0  0  0  0  0  0  0  0  0  0 
    4.1083   -1.1635   -0.2398 H   0  0  0  0  0  0  0  0  0  0  0  0 
    4.0064    0.1945   -1.3692 H   0  0  0  0  0  0  0  0  0  0  0  0 
    2.6210    3.0501   -1.0326 H   0  0  0  0  0  0  0  0  0  0  0  0 
    2.3096    4.2888    0.1964 H   0  0  0  0  0  0  0  0  0  0  0  0 
    1.0774    3.0698   -0.1709 H   0  0  0  0  0  0  0  0  0  0  0  0 
    1.7096   -0.7570    0.4523 H   0  0  0  0  0  0  0  0  0  0  0  0 
    1.6046    0.5838   -0.6721 H   0  0  0  0  0  0  0  0  0  0  0  0 
    4.2431    2.3775    3.9165 H   0  0  0  0  0  0  0  0  0  0  0  0 
  1 10  1  0  0  0  0 
  1  3  1  0  0  0  0 
  2 13  1  0  0  0  0 
  2  5  1  0  0  0  0 
  3 15  1  0  0  0  0 
  3  6  1  0  0  0  0 
  4 17  1  0  0  0  0 
  5  6  2  0  0  0  0 
  5  7  1  0  0  0  0 
  6  8  1  0  0  0  0 
  7  4  2  0  0  0  0 
  8  4  1  0  0  0  0 
  9  1  1  0  0  0  0 
 11  1  1  0  0  0  0 
 12  2  1  0  0  0  0 
 14  2  1  0  0  0  0 
 16  3  1  0  0  0  0 
M  END 
>  <HBA> 
2 
 
>  <HBD> 
0 
 
>  <TPSA> 
41.13 
 
>  <cid> 
40380 
 
>  <dipole> 
1.69 
 
>  <excitation_energy_1> 
5.15 
 
>  <excitation_energy_2> 
5.293 
 
>  <excitation_energy_3> 
5.344 
 
>  <excitation_energy_4> 
5.772 
 
>  <homo_energy> 
-6.24 
 
>  <homo_lumo_gap> 
5.693 
 
>  <logP> 
2.014 
 
>  <lumo_energy> 
-0.547 
 
>  <melting_point> 
26.06 
 
>  <molecular_refractivity> 
36.85 
 
>  <oscillator_strength_1> 
0.1131 
 
>  <oscillator_strength_2> 
0.0007 
 
>  <oscillator_strength_3> 
0.0184 
 
>  <oscillator_strength_4> 
0.0052 
 
>  <open_babel_can_smiles> 
CCc1scnc1C 
 
>  <mulliken_charges> 
17 
1   -0.437524 
2   -0.524523 
3   -0.318513 
4   -0.128391 
5   0.278741 
6   -0.151013 
7   -0.38724 
8   0.213906 
9   0.147809 
10   0.15679 
11   0.155679 
12   0.159979 
13   0.17963 
14   0.161888 
15   0.157643 
16   0.157629 
17   0.17751 
 
>  <lowdin_charges> 
17 
1   -0.444761 
2   -0.442658 
3   -0.26996 
4   -0.239834 
5   0.001266 
6   -0.180311 
7   -0.158461 
8   0.280994 
9   0.15319 
10   0.155737 
11   0.15507 
12   0.159504 
13   0.172476 
14   0.158981 
15   0.158 
16   0.160522 
17   0.180247 
 
$$$$ 
 
