PCCDB-ID:  9259 
public computational chemistry database (PCCDB) project, http://pccdb.org 
 
 10 10  0  0  0  0  0  0  0  0999 V2000 
   -1.4096   -0.0939   -0.0270 C   0  0  0  0  0  0  0  0  0  0  0  0 
   -0.6529   -1.2529   -0.0240 C   0  0  0  0  0  0  0  0  0  0  0  0 
   -0.7119    1.1155    0.0591 C   0  0  0  0  0  0  0  0  0  0  0  0 
    0.7347   -1.1004    0.0648 C   0  0  0  0  0  0  0  0  0  0  0  0 
    0.6190    1.2023    0.1410 N   0  0  0  0  0  0  0  0  0  0  0  0 
    1.3494    0.0834    0.1439 N   0  0  0  0  0  0  0  0  0  0  0  0 
   -2.4936   -0.1097   -0.0924 H   0  0  0  0  0  0  0  0  0  0  0  0 
   -1.1033   -2.2391   -0.0870 H   0  0  0  0  0  0  0  0  0  0  0  0 
   -1.2342    2.0693    0.0637 H   0  0  0  0  0  0  0  0  0  0  0  0 
    1.3978   -1.9622    0.0741 H   0  0  0  0  0  0  0  0  0  0  0  0 
  1  2  2  0  0  0  0 
  1  3  1  0  0  0  0 
  2  4  1  0  0  0  0 
  3  9  1  0  0  0  0 
  3  5  2  0  0  0  0 
  4 10  1  0  0  0  0 
  4  6  2  0  0  0  0 
  5  6  1  0  0  0  0 
  7  1  1  0  0  0  0 
  8  2  1  0  0  0  0 
M  END 
>  <HBA> 
2 
 
>  <HBD> 
0 
 
>  <TPSA> 
25.78 
 
>  <cid> 
9259 
 
>  <dipole> 
4.11 
 
>  <excitation_energy_1> 
3.598 
 
>  <excitation_energy_2> 
4.16 
 
>  <excitation_energy_3> 
5.555 
 
>  <excitation_energy_4> 
5.665 
 
>  <homo_energy> 
-6.365 
 
>  <homo_lumo_gap> 
4.969 
 
>  <logP> 
0.477 
 
>  <lumo_energy> 
-1.396 
 
>  <melting_point> 
33.32 
 
>  <molecular_refractivity> 
22.03 
 
>  <oscillator_strength_1> 
0.0048 
 
>  <oscillator_strength_2> 
0.0 
 
>  <oscillator_strength_3> 
0.0 
 
>  <oscillator_strength_4> 
0.0243 
 
>  <open_babel_can_smiles> 
c1ccnnc1 
 
>  <mulliken_charges> 
10 
1   -0.114946 
2   -0.115242 
3   0.041817 
4   0.041905 
5   -0.242827 
6   -0.242829 
7   0.156522 
8   0.156492 
9   0.159547 
10   0.159561 
 
>  <lowdin_charges> 
10 
1   -0.140771 
2   -0.143824 
3   -0.105999 
4   -0.10532 
5   -0.090623 
6   -0.091675 
7   0.169796 
8   0.171477 
9   0.1682 
10   0.168739 
 
$$$$ 
 
