PCCDB-ID:  25902 
public computational chemistry database (PCCDB) project, http://pccdb.org 
 
 17 18  0  0  0  0  0  0  0  0999 V2000 
    1.0106    0.0064    0.0468 C   0  0  0  0  0  0  0  0  0  0  0  0 
    5.4008   -2.9452    0.0793 C   0  0  0  0  0  0  0  0  0  0  0  0 
    4.0767   -3.4488    0.0936 C   0  0  0  0  0  0  0  0  0  0  0  0 
    5.6559   -1.5832    0.0528 C   0  0  0  0  0  0  0  0  0  0  0  0 
    2.9715   -2.6101    0.0837 C   0  0  0  0  0  0  0  0  0  0  0  0 
    4.5497   -0.7186    0.0418 C   0  0  0  0  0  0  0  0  0  0  0  0 
    3.2365   -1.2322    0.0575 C   0  0  0  0  0  0  0  0  0  0  0  0 
    4.4820    0.6594    0.0172 N   0  0  0  0  0  0  0  0  0  0  0  0 
    3.2373    1.0069    0.0171 N   0  0  0  0  0  0  0  0  0  0  0  0 
    2.4530   -0.1141    0.0412 N   0  0  0  0  0  0  0  0  0  0  0  0 
    0.5776   -0.4804   -0.8336 H   0  0  0  0  0  0  0  0  0  0  0  0 
    0.7753    1.0712    0.0256 H   0  0  0  0  0  0  0  0  0  0  0  0 
    0.5875   -0.4423    0.9520 H   0  0  0  0  0  0  0  0  0  0  0  0 
    6.2290   -3.6477    0.0877 H   0  0  0  0  0  0  0  0  0  0  0  0 
    3.9241   -4.5243    0.1146 H   0  0  0  0  0  0  0  0  0  0  0  0 
    6.6662   -1.1871    0.0406 H   0  0  0  0  0  0  0  0  0  0  0  0 
    1.9599   -3.0040    0.0955 H   0  0  0  0  0  0  0  0  0  0  0  0 
  1 13  1  0  0  0  0 
  2 14  1  0  0  0  0 
  2  3  2  0  0  0  0 
  3 15  1  0  0  0  0 
  4  2  1  0  0  0  0 
  5  3  1  0  0  0  0 
  5 17  1  0  0  0  0 
  6  4  2  0  0  0  0 
  6  7  1  0  0  0  0 
  7  5  2  0  0  0  0 
  8  6  1  0  0  0  0 
  9  8  2  0  0  0  0 
  9 10  1  0  0  0  0 
 10  1  1  0  0  0  0 
 10  7  1  0  0  0  0 
 11  1  1  0  0  0  0 
 12  1  1  0  0  0  0 
 16  4  1  0  0  0  0 
M  END 
>  <HBA> 
3 
 
>  <HBD> 
0 
 
>  <TPSA> 
30.71 
 
>  <cid> 
25902 
 
>  <dipole> 
4.07 
 
>  <excitation_energy_1> 
4.704 
 
>  <excitation_energy_2> 
4.924 
 
>  <excitation_energy_3> 
5.113 
 
>  <excitation_energy_4> 
5.81 
 
>  <homo_energy> 
-6.406 
 
>  <homo_lumo_gap> 
5.298 
 
>  <logP> 
0.968 
 
>  <lumo_energy> 
-1.108 
 
>  <melting_point> 
81.83 
 
>  <molecular_refractivity> 
38.79 
 
>  <oscillator_strength_1> 
0.0803 
 
>  <oscillator_strength_2> 
0.0033 
 
>  <oscillator_strength_3> 
0.0879 
 
>  <oscillator_strength_4> 
0.0077 
 
>  <open_babel_can_smiles> 
Cn1nnc2c1cccc2 
 
>  <mulliken_charges> 
17 
1   -0.326007 
2   -0.14632 
3   -0.143459 
4   -0.14979 
5   -0.159496 
6   0.236811 
7   0.36999 
8   -0.365602 
9   -0.049425 
10   -0.38472 
11   0.176849 
12   0.203063 
13   0.176916 
14   0.135196 
15   0.136159 
16   0.151477 
17   0.138357 
 
>  <lowdin_charges> 
17 
1   -0.348013 
2   -0.167607 
3   -0.144753 
4   -0.14214 
5   -0.180284 
6   -0.01314 
7   0.008601 
8   -0.128576 
9   -0.069033 
10   0.013964 
11   0.16504 
12   0.184081 
13   0.16484 
14   0.162648 
15   0.159963 
16   0.171769 
17   0.162638 
 
$$$$ 
 
