PCCDB-ID:  14588 
public computational chemistry database (PCCDB) project, http://pccdb.org 
 
 30 32  0  0  0  0  0  0  0  0999 V2000 
   -3.7073    0.0663    0.8067 C   0  0  0  0  0  0  0  0  0  0  0  0 
    3.7536    0.1758    0.8132 C   0  0  0  0  0  0  0  0  0  0  0  0 
   -3.3359   -1.2736    0.7192 C   0  0  0  0  0  0  0  0  0  0  0  0 
    3.5784   -1.1060    0.2977 C   0  0  0  0  0  0  0  0  0  0  0  0 
   -2.8714    1.0455    0.2692 C   0  0  0  0  0  0  0  0  0  0  0  0 
    2.7239    1.1005    0.6798 C   0  0  0  0  0  0  0  0  0  0  0  0 
   -2.1345   -1.6230    0.0999 C   0  0  0  0  0  0  0  0  0  0  0  0 
    2.3739   -1.4367   -0.3167 C   0  0  0  0  0  0  0  0  0  0  0  0 
   -0.7435    1.7728   -0.8855 C   0  0  0  0  0  0  0  0  0  0  0  0 
    0.5110    1.9469   -0.0176 C   0  0  0  0  0  0  0  0  0  0  0  0 
   -1.6613    0.7062   -0.3441 C   0  0  0  0  0  0  0  0  0  0  0  0 
    1.5009    0.7885    0.0627 C   0  0  0  0  0  0  0  0  0  0  0  0 
   -1.2809   -0.6456   -0.4191 C   0  0  0  0  0  0  0  0  0  0  0  0 
    1.3106   -0.5237   -0.4269 C   0  0  0  0  0  0  0  0  0  0  0  0 
    0.0237   -1.0291   -1.1233 C   0  0  0  0  0  0  0  0  0  0  0  0 
    0.0835   -2.4304   -1.3666 O   0  0  0  0  0  0  0  0  0  0  0  0 
   -4.6442    0.3490    1.2793 H   0  0  0  0  0  0  0  0  0  0  0  0 
    4.6841    0.4595    1.2976 H   0  0  0  0  0  0  0  0  0  0  0  0 
   -3.9829   -2.0501    1.1186 H   0  0  0  0  0  0  0  0  0  0  0  0 
    4.3733   -1.8442    0.3627 H   0  0  0  0  0  0  0  0  0  0  0  0 
   -3.1627    2.0925    0.3195 H   0  0  0  0  0  0  0  0  0  0  0  0 
    2.8639    2.1104    1.0608 H   0  0  0  0  0  0  0  0  0  0  0  0 
   -1.8788   -2.6715   -0.0089 H   0  0  0  0  0  0  0  0  0  0  0  0 
    2.2569   -2.4232   -0.7494 H   0  0  0  0  0  0  0  0  0  0  0  0 
   -0.4481    1.5485   -1.9199 H   0  0  0  0  0  0  0  0  0  0  0  0 
   -1.2740    2.7312   -0.9197 H   0  0  0  0  0  0  0  0  0  0  0  0 
    0.1851    2.1999    1.0016 H   0  0  0  0  0  0  0  0  0  0  0  0 
    1.0621    2.8255   -0.3792 H   0  0  0  0  0  0  0  0  0  0  0  0 
   -0.0045   -0.6035   -2.1353 H   0  0  0  0  0  0  0  0  0  0  0  0 
    0.1928   -2.8677   -0.5059 H   0  0  0  0  0  0  0  0  0  0  0  0 
  1 17  1  0  0  0  0 
  2 18  1  0  0  0  0 
  3  1  1  0  0  0  0 
  3 19  1  0  0  0  0 
  4 20  1  0  0  0  0 
  4  2  2  0  0  0  0 
  5 21  1  0  0  0  0 
  5  1  2  0  0  0  0 
  6  2  1  0  0  0  0 
  6 22  1  0  0  0  0 
  7  3  2  0  0  0  0 
  8  4  1  0  0  0  0 
  9 11  1  0  0  0  0 
  9 10  1  0  0  0  0 
 10 12  1  0  0  0  0 
 10 27  1  0  0  0  0 
 11  5  1  0  0  0  0 
 12  6  2  0  0  0  0 
 13 11  2  0  0  0  0 
 13  7  1  0  0  0  0 
 14  8  2  0  0  0  0 
 14 12  1  0  0  0  0 
 15 14  1  0  0  0  0 
 15 13  1  0  0  0  0 
 16 15  1  0  0  0  0 
 16 30  1  0  0  0  0 
 23  7  1  0  0  0  0 
 24  8  1  0  0  0  0 
 25  9  1  0  0  0  0 
 26  9  1  0  0  0  0 
 28 10  1  0  0  0  0 
 29 15  1  0  0  0  0 
M  END 
>  <HBA> 
1 
 
>  <HBD> 
1 
 
>  <TPSA> 
20.23 
 
>  <cid> 
14588 
 
>  <dipole> 
1.56 
 
>  <excitation_energy_1> 
5.15 
 
>  <excitation_energy_2> 
5.211 
 
>  <excitation_energy_3> 
5.474 
 
>  <excitation_energy_4> 
5.552 
 
>  <homo_energy> 
-6.373 
 
>  <homo_lumo_gap> 
6.253 
 
>  <logP> 
2.867 
 
>  <lumo_energy> 
-0.12 
 
>  <melting_point> 
88.42 
 
>  <molecular_refractivity> 
64.87 
 
>  <oscillator_strength_1> 
0.0047 
 
>  <oscillator_strength_2> 
0.0039 
 
>  <oscillator_strength_3> 
0.0015 
 
>  <oscillator_strength_4> 
0.0049 
 
>  <open_babel_can_smiles> 
OC1c2ccccc2CCc2c1cccc2 
 
>  <mulliken_charges> 
30 
1   -0.124048 
2   -0.122474 
3   -0.131027 
4   -0.130384 
5   -0.193883 
6   -0.185506 
7   -0.187889 
8   -0.191813 
9   -0.363712 
10   -0.339175 
11   0.130832 
12   0.128423 
13   0.10425 
14   0.054114 
15   -0.006111 
16   -0.618449 
17   0.127541 
18   0.127782 
19   0.127555 
20   0.127486 
21   0.122067 
22   0.120996 
23   0.121104 
24   0.138308 
25   0.151273 
26   0.14339 
27   0.159518 
28   0.151101 
29   0.170566 
30   0.388164 
 
>  <lowdin_charges> 
30 
1   -0.15713 
2   -0.156246 
3   -0.159903 
4   -0.161781 
5   -0.165793 
6   -0.161928 
7   -0.165232 
8   -0.172333 
9   -0.275608 
10   -0.272047 
11   -0.010529 
12   -0.011042 
13   -0.025044 
14   -0.033573 
15   -0.000303 
16   -0.439666 
17   0.157083 
18   0.15719 
19   0.158339 
20   0.157638 
21   0.152472 
22   0.152559 
23   0.154483 
24   0.162484 
25   0.150211 
26   0.153658 
27   0.15587 
28   0.155192 
29   0.161065 
30   0.339914 
 
$$$$ 
 
