PCCDB-ID:  68307 
public computational chemistry database (PCCDB) project, http://pccdb.org 
 
 20 20  0  0  0  0  0  0  0  0999 V2000 
    3.4900    0.1822   -1.3031 C   0  0  0  0  0  0  0  0  0  0  0  0 
    2.4744   -4.8995    1.1804 C   0  0  0  0  0  0  0  0  0  0  0  0 
    2.5204    0.0038   -0.1204 C   0  0  0  0  0  0  0  0  0  0  0  0 
    3.7747   -0.9160    1.8915 C   0  0  0  0  0  0  0  0  0  0  0  0 
    4.1455   -2.0031    2.6775 C   0  0  0  0  0  0  0  0  0  0  0  0 
    2.5030   -2.4390    0.5695 C   0  0  0  0  0  0  0  0  0  0  0  0 
    2.9257   -3.4768    1.4120 C   0  0  0  0  0  0  0  0  0  0  0  0 
    2.9267   -1.1281    0.7969 C   0  0  0  0  0  0  0  0  0  0  0  0 
    3.7398   -3.2609    2.4578 N   0  0  0  0  0  0  0  0  0  0  0  0 
    3.1698    1.0092   -1.9468 H   0  0  0  0  0  0  0  0  0  0  0  0 
    3.5367   -0.7266   -1.9133 H   0  0  0  0  0  0  0  0  0  0  0  0 
    4.5045    0.3979   -0.9502 H   0  0  0  0  0  0  0  0  0  0  0  0 
    1.3809   -4.9818    1.2101 H   0  0  0  0  0  0  0  0  0  0  0  0 
    2.8957   -5.5472    1.9521 H   0  0  0  0  0  0  0  0  0  0  0  0 
    2.7997   -5.2665    0.1988 H   0  0  0  0  0  0  0  0  0  0  0  0 
    1.5100   -0.1816   -0.5056 H   0  0  0  0  0  0  0  0  0  0  0  0 
    2.4726    0.9385    0.4519 H   0  0  0  0  0  0  0  0  0  0  0  0 
    4.1370    0.0811    2.1297 H   0  0  0  0  0  0  0  0  0  0  0  0 
    4.8006   -1.8600    3.5360 H   0  0  0  0  0  0  0  0  0  0  0  0 
    1.8377   -2.6593   -0.2631 H   0  0  0  0  0  0  0  0  0  0  0  0 
  1 12  1  0  0  0  0 
  1  3  1  0  0  0  0 
  2 13  1  0  0  0  0 
  2  7  1  0  0  0  0 
  2 14  1  0  0  0  0 
  3 17  1  0  0  0  0 
  3  8  1  0  0  0  0 
  4 18  1  0  0  0  0 
  4  5  2  0  0  0  0 
  5 19  1  0  0  0  0 
  6  8  2  0  0  0  0 
  6  7  1  0  0  0  0 
  7  9  2  0  0  0  0 
  8  4  1  0  0  0  0 
  9  5  1  0  0  0  0 
 10  1  1  0  0  0  0 
 11  1  1  0  0  0  0 
 15  2  1  0  0  0  0 
 16  3  1  0  0  0  0 
 20  6  1  0  0  0  0 
M  END 
>  <HBA> 
1 
 
>  <HBD> 
0 
 
>  <TPSA> 
12.89 
 
>  <cid> 
68307 
 
>  <dipole> 
2.33 
 
>  <excitation_energy_1> 
4.965 
 
>  <excitation_energy_2> 
5.137 
 
>  <excitation_energy_3> 
5.339 
 
>  <excitation_energy_4> 
5.99 
 
>  <homo_energy> 
-6.675 
 
>  <homo_lumo_gap> 
6.316 
 
>  <logP> 
1.952 
 
>  <lumo_energy> 
-0.359 
 
>  <melting_point> 
26.83 
 
>  <molecular_refractivity> 
38.98 
 
>  <oscillator_strength_1> 
0.0039 
 
>  <oscillator_strength_2> 
0.0007 
 
>  <oscillator_strength_3> 
0.0315 
 
>  <oscillator_strength_4> 
0.0133 
 
>  <open_babel_can_smiles> 
CCc1ccnc(c1)C 
 
>  <mulliken_charges> 
20 
1   -0.436043 
2   -0.520257 
3   -0.339709 
4   -0.192307 
5   0.037333 
6   -0.215659 
7   0.308204 
8   0.195827 
9   -0.463232 
10   0.148367 
11   0.152395 
12   0.15304 
13   0.158833 
14   0.176301 
15   0.159044 
16   0.147839 
17   0.14743 
18   0.126207 
19   0.135427 
20   0.12096 
 
>  <lowdin_charges> 
20 
1   -0.439088 
2   -0.448403 
3   -0.270894 
4   -0.194122 
5   -0.088125 
6   -0.194561 
7   0.05647 
8   0.025103 
9   -0.165619 
10   0.152936 
11   0.152459 
12   0.151812 
13   0.1586 
14   0.171507 
15   0.160348 
16   0.15087 
17   0.151612 
18   0.158314 
19   0.154213 
20   0.156568 
 
$$$$ 
 
