PCCDB-ID:  18652 
public computational chemistry database (PCCDB) project, http://pccdb.org 
 
 25 25  0  0  0  0  0  0  0  0999 V2000 
    1.8685   -1.0665    0.1393 C   0  0  0  0  0  0  0  0  0  0  0  0 
    6.1532   -0.6393   -5.8628 C   0  0  0  0  0  0  0  0  0  0  0  0 
    3.9525    0.4663   -2.4301 C   0  0  0  0  0  0  0  0  0  0  0  0 
    4.6977    0.1329   -3.5593 C   0  0  0  0  0  0  0  0  0  0  0  0 
    3.3358   -1.8503   -2.1577 C   0  0  0  0  0  0  0  0  0  0  0  0 
    4.1365   -3.6369   -3.7666 C   0  0  0  0  0  0  0  0  0  0  0  0 
    4.0736   -2.2014   -3.2912 C   0  0  0  0  0  0  0  0  0  0  0  0 
    3.2679   -0.5220   -1.7195 C   0  0  0  0  0  0  0  0  0  0  0  0 
    4.7629   -1.1958   -3.9905 C   0  0  0  0  0  0  0  0  0  0  0  0 
    5.4544   -4.2381   -3.4875 N   0  0  0  0  0  0  0  0  0  0  0  0 
    2.5646   -0.0967   -0.6228 O   0  0  0  0  0  0  0  0  0  0  0  0 
    5.4802   -1.6169   -5.0894 O   0  0  0  0  0  0  0  0  0  0  0  0 
    1.3925   -0.5213    0.9569 H   0  0  0  0  0  0  0  0  0  0  0  0 
    2.5491   -1.8214    0.5561 H   0  0  0  0  0  0  0  0  0  0  0  0 
    1.0951   -1.5724   -0.4550 H   0  0  0  0  0  0  0  0  0  0  0  0 
    6.6275   -1.1789   -6.6850 H   0  0  0  0  0  0  0  0  0  0  0  0 
    6.9251   -0.1203   -5.2784 H   0  0  0  0  0  0  0  0  0  0  0  0 
    5.4550    0.1031   -6.2725 H   0  0  0  0  0  0  0  0  0  0  0  0 
    3.8950    1.4941   -2.0860 H   0  0  0  0  0  0  0  0  0  0  0  0 
    5.2239    0.9174   -4.0911 H   0  0  0  0  0  0  0  0  0  0  0  0 
    2.8181   -2.6376   -1.6208 H   0  0  0  0  0  0  0  0  0  0  0  0 
    3.8616   -3.6640   -4.8352 H   0  0  0  0  0  0  0  0  0  0  0  0 
    3.3820   -4.2222   -3.2285 H   0  0  0  0  0  0  0  0  0  0  0  0 
    6.1502   -3.7230   -4.0260 H   0  0  0  0  0  0  0  0  0  0  0  0 
    5.4630   -5.1878   -3.8608 H   0  0  0  0  0  0  0  0  0  0  0  0 
  1 14  1  0  0  0  0 
  1 13  1  0  0  0  0 
  2 17  1  0  0  0  0 
  2 12  1  0  0  0  0 
  3 19  1  0  0  0  0 
  3  8  2  0  0  0  0 
  4  3  1  0  0  0  0 
  5  8  1  0  0  0  0 
  5 21  1  0  0  0  0 
  6 10  1  0  0  0  0 
  6  7  1  0  0  0  0 
  6 23  1  0  0  0  0 
  7  5  2  0  0  0  0 
  8 11  1  0  0  0  0 
  9  4  2  0  0  0  0 
  9  7  1  0  0  0  0 
 11  1  1  0  0  0  0 
 12  9  1  0  0  0  0 
 15  1  1  0  0  0  0 
 16  2  1  0  0  0  0 
 18  2  1  0  0  0  0 
 20  4  1  0  0  0  0 
 22  6  1  0  0  0  0 
 24 10  1  0  0  0  0 
 25 10  1  0  0  0  0 
M  END 
>  <HBA> 
3 
 
>  <HBD> 
1 
 
>  <TPSA> 
44.48 
 
>  <cid> 
18652 
 
>  <dipole> 
1.5 
 
>  <excitation_energy_1> 
4.573 
 
>  <excitation_energy_2> 
4.982 
 
>  <excitation_energy_3> 
5.168 
 
>  <excitation_energy_4> 
5.197 
 
>  <homo_energy> 
-5.276 
 
>  <homo_lumo_gap> 
5.339 
 
>  <logP> 
1.863 
 
>  <lumo_energy> 
0.063 
 
>  <melting_point> 
73.62 
 
>  <molecular_refractivity> 
47.1 
 
>  <oscillator_strength_1> 
0.0768 
 
>  <oscillator_strength_2> 
0.0007 
 
>  <oscillator_strength_3> 
0.005 
 
>  <oscillator_strength_4> 
0.003 
 
>  <open_babel_can_smiles> 
COc1ccc(c(c1)CN)OC 
 
>  <mulliken_charges> 
25 
1   -0.211736 
2   -0.212888 
3   -0.185133 
4   -0.191901 
5   -0.261234 
6   -0.21433 
7   0.133538 
8   0.384997 
9   0.321421 
10   -0.715584 
11   -0.51579 
12   -0.525655 
13   0.165985 
14   0.152292 
15   0.147356 
16   0.165735 
17   0.151756 
18   0.151409 
19   0.135709 
20   0.131219 
21   0.128722 
22   0.130985 
23   0.136476 
24   0.307638 
25   0.289013 
 
>  <lowdin_charges> 
25 
1   -0.282067 
2   -0.282074 
3   -0.176272 
4   -0.201711 
5   -0.20634 
6   -0.198151 
7   -0.019129 
8   0.088838 
9   0.078558 
10   -0.560716 
11   -0.20517 
12   -0.212991 
13   0.161838 
14   0.146072 
15   0.143486 
16   0.161552 
17   0.145596 
18   0.146061 
19   0.164899 
20   0.163822 
21   0.163572 
22   0.128823 
23   0.14507 
24   0.257347 
25   0.249086 
 
$$$$ 
 
