PCCDB-ID:  59401 
public computational chemistry database (PCCDB) project, http://pccdb.org 
 
 36 37  0  0  0  0  0  0  0  0999 V2000 
    2.0886    5.8611    5.4005 C   0  0  0  0  0  0  0  0  0  0  0  0 
    1.8171    4.7911    4.3362 C   0  0  0  0  0  0  0  0  0  0  0  0 
    2.6506    3.5067    4.4948 C   0  0  0  0  0  0  0  0  0  0  0  0 
    6.5934   10.1243    7.6183 C   0  0  0  0  0  0  0  0  0  0  0  0 
    5.5032    9.5209    6.9842 C   0  0  0  0  0  0  0  0  0  0  0  0 
    7.8829    9.7403    7.2532 C   0  0  0  0  0  0  0  0  0  0  0  0 
    5.6877    8.5501    6.0051 C   0  0  0  0  0  0  0  0  0  0  0  0 
    8.0887    8.7695    6.2728 C   0  0  0  0  0  0  0  0  0  0  0  0 
    4.1706    3.6893    4.4192 C   0  0  0  0  0  0  0  0  0  0  0  0 
    6.0269    4.2592    2.9180 C   0  0  0  0  0  0  0  0  0  0  0  0 
    8.4597    6.4753    4.5110 C   0  0  0  0  0  0  0  0  0  0  0  0 
    6.9893    8.1621    5.6395 C   0  0  0  0  0  0  0  0  0  0  0  0 
    6.7071    5.3775    3.6646 C   0  0  0  0  0  0  0  0  0  0  0  0 
    4.5905    4.1596    3.0936 N   0  0  0  0  0  0  0  0  0  0  0  0 
    6.1525    6.3959    4.2021 N   0  0  0  0  0  0  0  0  0  0  0  0 
    7.2053    7.2205    4.6326 N   0  0  0  0  0  0  0  0  0  0  0  0 
    8.0793    5.3584    3.7026 O   0  0  0  0  0  0  0  0  0  0  0  0 
    1.4235    6.7222    5.2686 H   0  0  0  0  0  0  0  0  0  0  0  0 
    3.1199    6.2289    5.3545 H   0  0  0  0  0  0  0  0  0  0  0  0 
    1.9230    5.4647    6.4102 H   0  0  0  0  0  0  0  0  0  0  0  0 
    1.9763    5.2171    3.3354 H   0  0  0  0  0  0  0  0  0  0  0  0 
    0.7551    4.5134    4.3672 H   0  0  0  0  0  0  0  0  0  0  0  0 
    2.3510    2.7876    3.7219 H   0  0  0  0  0  0  0  0  0  0  0  0 
    2.4147    3.0490    5.4660 H   0  0  0  0  0  0  0  0  0  0  0  0 
    6.4385   10.8809    8.3818 H   0  0  0  0  0  0  0  0  0  0  0  0 
    4.4904    9.8068    7.2569 H   0  0  0  0  0  0  0  0  0  0  0  0 
    8.7452   10.1977    7.7314 H   0  0  0  0  0  0  0  0  0  0  0  0 
    4.8408    8.0836    5.5171 H   0  0  0  0  0  0  0  0  0  0  0  0 
    9.1034    8.4980    5.9966 H   0  0  0  0  0  0  0  0  0  0  0  0 
    4.6475    2.7132    4.5802 H   0  0  0  0  0  0  0  0  0  0  0  0 
    4.5161    4.3461    5.2344 H   0  0  0  0  0  0  0  0  0  0  0  0 
    6.4952    3.3130    3.2159 H   0  0  0  0  0  0  0  0  0  0  0  0 
    6.2556    4.3866    1.8496 H   0  0  0  0  0  0  0  0  0  0  0  0 
    8.8415    6.1228    5.4860 H   0  0  0  0  0  0  0  0  0  0  0  0 
    9.2403    7.0445    3.9943 H   0  0  0  0  0  0  0  0  0  0  0  0 
    4.1733    5.0693    2.9069 H   0  0  0  0  0  0  0  0  0  0  0  0 
  1 20  1  0  0  0  0 
  2 22  1  0  0  0  0 
  2  3  1  0  0  0  0 
  2  1  1  0  0  0  0 
  3 24  1  0  0  0  0 
  4 25  1  0  0  0  0 
  5 26  1  0  0  0  0 
  5  4  2  0  0  0  0 
  6  4  1  0  0  0  0 
  6 27  1  0  0  0  0 
  7  5  1  0  0  0  0 
  8  6  2  0  0  0  0 
  9  3  1  0  0  0  0 
  9 30  1  0  0  0  0 
  9 31  1  0  0  0  0 
 10 14  1  0  0  0  0 
 10 32  1  0  0  0  0 
 10 13  1  0  0  0  0 
 11 16  1  0  0  0  0 
 11 34  1  0  0  0  0 
 12  7  2  0  0  0  0 
 12  8  1  0  0  0  0 
 13 17  1  0  0  0  0 
 13 15  2  0  0  0  0 
 14  9  1  0  0  0  0 
 15 16  1  0  0  0  0 
 16 12  1  0  0  0  0 
 17 11  1  0  0  0  0 
 18  1  1  0  0  0  0 
 19  1  1  0  0  0  0 
 21  2  1  0  0  0  0 
 23  3  1  0  0  0  0 
 28  7  1  0  0  0  0 
 29  8  1  0  0  0  0 
 33 10  1  0  0  0  0 
 35 11  1  0  0  0  0 
 36 14  1  0  0  0  0 
M  END 
>  <HBA> 
4 
 
>  <HBD> 
1 
 
>  <TPSA> 
36.86 
 
>  <cid> 
59401 
 
>  <dipole> 
1.16 
 
>  <excitation_energy_1> 
4.273 
 
>  <excitation_energy_2> 
4.52 
 
>  <excitation_energy_3> 
4.688 
 
>  <excitation_energy_4> 
5.01 
 
>  <homo_energy> 
-5.108 
 
>  <homo_lumo_gap> 
5.091 
 
>  <logP> 
2.075 
 
>  <lumo_energy> 
-0.016 
 
>  <melting_point> 
68.01 
 
>  <molecular_refractivity> 
76.4 
 
>  <oscillator_strength_1> 
0.0799 
 
>  <oscillator_strength_2> 
0.1453 
 
>  <oscillator_strength_3> 
0.1599 
 
>  <oscillator_strength_4> 
0.0038 
 
>  <open_babel_can_smiles> 
CCCCNCC1=NN(CO1)c1ccccc1 
 
>  <mulliken_charges> 
36 
1   -0.463046 
2   -0.260579 
3   -0.255769 
4   -0.133386 
5   -0.140267 
6   -0.136236 
7   -0.174608 
8   -0.192683 
9   -0.130088 
10   -0.217791 
11   0.11487 
12   0.349623 
13   0.537706 
14   -0.541308 
15   -0.330461 
16   -0.432543 
17   -0.497489 
18   0.141889 
19   0.171532 
20   0.141182 
21   0.132513 
22   0.135279 
23   0.141278 
24   0.128517 
25   0.122732 
26   0.127813 
27   0.126526 
28   0.16172 
29   0.124072 
30   0.133384 
31   0.136725 
32   0.170819 
33   0.176827 
34   0.149939 
35   0.167356 
36   0.313951 
 
>  <lowdin_charges> 
36 
1   -0.451418 
2   -0.275088 
3   -0.280643 
4   -0.182945 
5   -0.144298 
6   -0.147635 
7   -0.190858 
8   -0.209016 
9   -0.208025 
10   -0.204979 
11   -0.058183 
12   0.054462 
13   0.094621 
14   -0.350966 
15   -0.145474 
16   -0.066601 
17   -0.204945 
18   0.15049 
19   0.153153 
20   0.145817 
21   0.137413 
22   0.14295 
23   0.149025 
24   0.142575 
25   0.156069 
26   0.156522 
27   0.157579 
28   0.172099 
29   0.154895 
30   0.140799 
31   0.129093 
32   0.165481 
33   0.165874 
34   0.135825 
35   0.155878 
36   0.260455 
 
$$$$ 
 
