PCCDB-ID:  16828 
public computational chemistry database (PCCDB) project, http://pccdb.org 
 
 36 37  0  0  1  0  0  0  0  0999 V2000 
    7.3439   -2.3284   -1.2158 C   0  0  0  0  0  0  0  0  0  0  0  0 
   13.4233    3.5412    5.8498 C   0  0  0  0  0  0  0  0  0  0  0  0 
   13.9548    3.5609    4.5573 C   0  0  0  0  0  0  0  0  0  0  0  0 
    8.8587    0.8436   -0.0574 C   0  0  0  0  0  0  0  0  0  0  0  0 
   12.4697    2.5856    6.1974 C   0  0  0  0  0  0  0  0  0  0  0  0 
   13.5447    2.6124    3.6214 C   0  0  0  0  0  0  0  0  0  0  0  0 
   10.1191    0.3918    0.6895 C   0  0  0  0  0  0  0  0  0  0  0  0 
    8.2996   -0.1742   -1.0469 C   0  0  0  0  0  0  0  0  0  0  0  0 
   10.9556   -1.2150    2.3645 C   0  0  0  0  0  0  0  0  0  0  0  0 
   10.4847    0.0388    4.5427 C   0  0  0  0  0  0  0  0  0  0  0  0 
   11.5339   -0.4242    3.5386 C   0  0  2  0  0  0  0  0  0  0  0  0 
   12.0473    1.6405    5.2608 C   0  0  0  0  0  0  0  0  0  0  0  0 
   12.5989    1.6467    3.9682 C   0  0  0  0  0  0  0  0  0  0  0  0 
    9.7998   -0.5864    1.7335 N   0  0  0  0  0  0  0  0  0  0  0  0 
    7.8611   -1.3366   -0.3531 O   0  0  0  0  0  0  0  0  0  0  0  0 
   11.1057    0.7177    5.6392 O   0  0  0  0  0  0  0  0  0  0  0  0 
   12.2296    0.7222    3.0195 O   0  0  0  0  0  0  0  0  0  0  0  0 
    7.0347   -3.1718   -0.5930 H   0  0  0  0  0  0  0  0  0  0  0  0 
    8.0996   -2.6739   -1.9395 H   0  0  0  0  0  0  0  0  0  0  0  0 
    6.4707   -1.9592   -1.7764 H   0  0  0  0  0  0  0  0  0  0  0  0 
   13.7446    4.2719    6.5865 H   0  0  0  0  0  0  0  0  0  0  0  0 
   14.6926    4.3075    4.2781 H   0  0  0  0  0  0  0  0  0  0  0  0 
    9.0900    1.7537   -0.6261 H   0  0  0  0  0  0  0  0  0  0  0  0 
    8.0819    1.1053    0.6714 H   0  0  0  0  0  0  0  0  0  0  0  0 
   12.0305    2.5548    7.1900 H   0  0  0  0  0  0  0  0  0  0  0  0 
   13.9513    2.5941    2.6145 H   0  0  0  0  0  0  0  0  0  0  0  0 
   10.5949    1.2573    1.1597 H   0  0  0  0  0  0  0  0  0  0  0  0 
   10.8536   -0.0042   -0.0417 H   0  0  0  0  0  0  0  0  0  0  0  0 
    9.0725   -0.4513   -1.7854 H   0  0  0  0  0  0  0  0  0  0  0  0 
    7.4552    0.2631   -1.6063 H   0  0  0  0  0  0  0  0  0  0  0  0 
   10.6366   -2.1857    2.7639 H   0  0  0  0  0  0  0  0  0  0  0  0 
   11.7832   -1.4134    1.6577 H   0  0  0  0  0  0  0  0  0  0  0  0 
    9.9518   -0.8118    4.9752 H   0  0  0  0  0  0  0  0  0  0  0  0 
    9.7623    0.6946    4.0454 H   0  0  0  0  0  0  0  0  0  0  0  0 
   12.2675   -1.0573    4.0620 H   0  0  0  0  0  0  0  0  0  0  0  0 
    9.2025   -1.2986    1.3208 H   0  0  0  0  0  0  0  0  0  0  0  0 
  1 18  1  0  0  0  0 
  1 15  1  0  0  0  0 
  2  5  1  0  0  0  0 
  2 21  1  0  0  0  0 
  3  2  2  0  0  0  0 
  4 24  1  0  0  0  0 
  4  7  1  0  0  0  0 
  5 25  1  0  0  0  0 
  6 13  2  0  0  0  0 
  6  3  1  0  0  0  0 
  7 27  1  0  0  0  0 
  7 14  1  0  0  0  0 
  8 15  1  0  0  0  0 
  8  4  1  0  0  0  0 
  9 31  1  0  0  0  0 
  9 11  1  0  0  0  0 
 10 33  1  0  0  0  0 
 10 16  1  0  0  0  0 
 11 35  1  1  0  0  0 
 11 10  1  0  0  0  0 
 12 16  1  0  0  0  0 
 12  5  2  0  0  0  0 
 13 12  1  0  0  0  0 
 14  9  1  0  0  0  0 
 17 11  1  0  0  0  0 
 17 13  1  0  0  0  0 
 19  1  1  0  0  0  0 
 20  1  1  0  0  0  0 
 22  3  1  0  0  0  0 
 23  4  1  0  0  0  0 
 26  6  1  0  0  0  0 
 28  7  1  0  0  0  0 
 29  8  1  0  0  0  0 
 30  8  1  0  0  0  0 
 32  9  1  0  0  0  0 
 34 10  1  0  0  0  0 
 36 14  1  0  0  0  0 
M  END 
>  <HBA> 
4 
 
>  <HBD> 
1 
 
>  <TPSA> 
39.72 
 
>  <cid> 
16828 
 
>  <dipole> 
3.78 
 
>  <excitation_energy_1> 
4.832 
 
>  <excitation_energy_2> 
5.098 
 
>  <excitation_energy_3> 
5.371 
 
>  <excitation_energy_4> 
5.379 
 
>  <homo_energy> 
-5.396 
 
>  <homo_lumo_gap> 
5.75 
 
>  <logP> 
1.843 
 
>  <lumo_energy> 
0.354 
 
>  <melting_point> 
52.02 
 
>  <molecular_refractivity> 
65.23 
 
>  <oscillator_strength_1> 
0.053 
 
>  <oscillator_strength_2> 
0.0098 
 
>  <oscillator_strength_3> 
0.0045 
 
>  <oscillator_strength_4> 
0.0017 
 
>  <open_babel_can_smiles> 
COCCCNC[C@@H]1COc2c(O1)cccc2 
 
>  <mulliken_charges> 
36 
1   -0.19368 
2   -0.138176 
3   -0.139216 
4   -0.297215 
5   -0.192214 
6   -0.194138 
7   -0.11557 
8   -0.014398 
9   -0.158082 
10   -0.047522 
11   0.121598 
12   0.333924 
13   0.33372 
14   -0.574912 
15   -0.463414 
16   -0.531271 
17   -0.544543 
18   0.159779 
19   0.133623 
20   0.135572 
21   0.124148 
22   0.12364 
23   0.139383 
24   0.159577 
25   0.135628 
26   0.133553 
27   0.162447 
28   0.104162 
29   0.119585 
30   0.124028 
31   0.137266 
32   0.132224 
33   0.148713 
34   0.174641 
35   0.138415 
36   0.328726 
 
>  <lowdin_charges> 
36 
1   -0.283066 
2   -0.169292 
3   -0.169893 
4   -0.289965 
5   -0.178046 
6   -0.178438 
7   -0.203766 
8   -0.132461 
9   -0.208434 
10   -0.144635 
11   -0.015675 
12   0.062922 
13   0.058199 
14   -0.37536 
15   -0.274391 
16   -0.208672 
17   -0.211226 
18   0.15687 
19   0.134781 
20   0.135762 
21   0.157692 
22   0.157051 
23   0.154749 
24   0.15801 
25   0.164996 
26   0.163376 
27   0.153194 
28   0.115495 
29   0.126094 
30   0.131261 
31   0.149997 
32   0.133973 
33   0.158937 
34   0.160106 
35   0.143442 
36   0.266418 
 
$$$$ 
 
