PCCDB-ID:  12263 
public computational chemistry database (PCCDB) project, http://pccdb.org 
 
 14 13  0  0  0  0  0  0  0  0999 V2000 
    0.9783    0.3959    0.1789 C   0  0  0  0  0  0  0  0  0  0  0  0 
    2.7447   -2.9468   -1.8338 C   0  0  0  0  0  0  0  0  0  0  0  0 
    2.4457    0.0777    0.0116 C   0  0  0  0  0  0  0  0  0  0  0  0 
    2.2736   -1.5131   -1.7021 C   0  0  0  0  0  0  0  0  0  0  0  0 
    2.9935   -0.7910   -0.7425 N   0  0  0  0  0  0  0  0  0  0  0  0 
    3.2839    0.7938    0.8007 O   0  0  0  0  0  0  0  0  0  0  0  0 
    1.4127   -1.0317   -2.4234 O   0  0  0  0  0  0  0  0  0  0  0  0 
    0.3600   -0.2415   -0.4502 H   0  0  0  0  0  0  0  0  0  0  0  0 
    0.7917    1.4360   -0.1157 H   0  0  0  0  0  0  0  0  0  0  0  0 
    0.6865    0.2838    1.2310 H   0  0  0  0  0  0  0  0  0  0  0  0 
    3.7778   -2.9593   -2.1997 H   0  0  0  0  0  0  0  0  0  0  0  0 
    2.1017   -3.4874   -2.5304 H   0  0  0  0  0  0  0  0  0  0  0  0 
    2.7490   -3.4429   -0.8567 H   0  0  0  0  0  0  0  0  0  0  0  0 
    2.7681    1.4094    1.3458 H   0  0  0  0  0  0  0  0  0  0  0  0 
  1 10  1  0  0  0  0 
  2  4  1  0  0  0  0 
  2 13  1  0  0  0  0 
  3  1  1  0  0  0  0 
  3  6  1  0  0  0  0 
  4  5  1  0  0  0  0 
  5  3  2  0  0  0  0 
  6 14  1  0  0  0  0 
  7  4  2  0  0  0  0 
  8  1  1  0  0  0  0 
  9  1  1  0  0  0  0 
 11  2  1  0  0  0  0 
 12  2  1  0  0  0  0 
M  END 
>  <HBA> 
3 
 
>  <HBD> 
1 
 
>  <TPSA> 
46.17 
 
>  <cid> 
12263 
 
>  <dipole> 
3.56 
 
>  <excitation_energy_1> 
4.282 
 
>  <excitation_energy_2> 
5.541 
 
>  <excitation_energy_3> 
5.777 
 
>  <excitation_energy_4> 
6.169 
 
>  <homo_energy> 
-6.58 
 
>  <homo_lumo_gap> 
5.791 
 
>  <logP> 
0.06 
 
>  <lumo_energy> 
-0.789 
 
>  <melting_point> 
44.73 
 
>  <molecular_refractivity> 
24.54 
 
>  <oscillator_strength_1> 
0.0009 
 
>  <oscillator_strength_2> 
0.0124 
 
>  <oscillator_strength_3> 
0.0052 
 
>  <oscillator_strength_4> 
0.1109 
 
>  <open_babel_can_smiles> 
C/C(=N\C(=O)C)/O 
 
>  <mulliken_charges> 
14 
1   -0.551852 
2   -0.507696 
3   0.515846 
4   0.505949 
5   -0.442589 
6   -0.556996 
7   -0.463861 
8   0.21623 
9   0.185637 
10   0.166675 
11   0.183349 
12   0.170817 
13   0.164899 
14   0.413593 
 
>  <lowdin_charges> 
14 
1   -0.480719 
2   -0.466874 
3   0.177175 
4   0.174596 
5   -0.203531 
6   -0.341254 
7   -0.273484 
8   0.195173 
9   0.176968 
10   0.164568 
11   0.1784 
12   0.169175 
13   0.167996 
14   0.361812 
 
$$$$ 
 
