PCCDB-ID:  13065 
public computational chemistry database (PCCDB) project, http://pccdb.org 
 
 31 32  0  0  0  0  0  0  0  0999 V2000 
    1.1013    0.0502   -0.2582 C   0  0  0  0  0  0  0  0  0  0  0  0 
    3.4076   -0.7266    0.2894 C   0  0  0  0  0  0  0  0  0  0  0  0 
    3.7966    3.1920   -3.0941 C   0  0  0  0  0  0  0  0  0  0  0  0 
    2.7017    2.6109    3.9660 C   0  0  0  0  0  0  0  0  0  0  0  0 
    2.7987    3.5766   -2.1948 C   0  0  0  0  0  0  0  0  0  0  0  0 
    4.4033    1.9473   -2.9440 C   0  0  0  0  0  0  0  0  0  0  0  0 
    3.8017    2.5907    3.1048 C   0  0  0  0  0  0  0  0  0  0  0  0 
    1.5252    1.9726    3.5804 C   0  0  0  0  0  0  0  0  0  0  0  0 
    2.4185    2.7222   -1.1628 C   0  0  0  0  0  0  0  0  0  0  0  0 
    4.0161    1.0915   -1.9077 C   0  0  0  0  0  0  0  0  0  0  0  0 
    3.7180    1.9390    1.8768 C   0  0  0  0  0  0  0  0  0  0  0  0 
    1.4468    1.3170    2.3474 C   0  0  0  0  0  0  0  0  0  0  0  0 
    3.0170    1.4613   -0.9988 C   0  0  0  0  0  0  0  0  0  0  0  0 
    2.5406    1.2866    1.4732 C   0  0  0  0  0  0  0  0  0  0  0  0 
    2.5206    0.5318    0.1278 C   0  0  0  0  0  0  0  0  0  0  0  0 
    1.1342   -0.4381   -1.2375 H   0  0  0  0  0  0  0  0  0  0  0  0 
    0.3910    0.8805   -0.3239 H   0  0  0  0  0  0  0  0  0  0  0  0 
    0.7155   -0.6776    0.4647 H   0  0  0  0  0  0  0  0  0  0  0  0 
    3.3827   -1.3525   -0.6099 H   0  0  0  0  0  0  0  0  0  0  0  0 
    3.0379   -1.3292    1.1254 H   0  0  0  0  0  0  0  0  0  0  0  0 
    4.4503   -0.4686    0.5007 H   0  0  0  0  0  0  0  0  0  0  0  0 
    4.0977    3.8575   -3.8988 H   0  0  0  0  0  0  0  0  0  0  0  0 
    2.7623    3.1212    4.9236 H   0  0  0  0  0  0  0  0  0  0  0  0 
    2.3194    4.5473   -2.2935 H   0  0  0  0  0  0  0  0  0  0  0  0 
    5.1838    1.6336   -3.6328 H   0  0  0  0  0  0  0  0  0  0  0  0 
    4.7255    3.0894    3.3871 H   0  0  0  0  0  0  0  0  0  0  0  0 
    0.6586    1.9817    4.2368 H   0  0  0  0  0  0  0  0  0  0  0  0 
    1.6528    3.0427   -0.4611 H   0  0  0  0  0  0  0  0  0  0  0  0 
    4.5089    0.1294   -1.8172 H   0  0  0  0  0  0  0  0  0  0  0  0 
    4.5769    1.9458    1.2109 H   0  0  0  0  0  0  0  0  0  0  0  0 
    0.5156    0.8306    2.0768 H   0  0  0  0  0  0  0  0  0  0  0  0 
  1 15  1  0  0  0  0 
  1 18  1  0  0  0  0 
  2 21  1  0  0  0  0 
  2 20  1  0  0  0  0 
  3  6  2  0  0  0  0 
  3  5  1  0  0  0  0 
  4 23  1  0  0  0  0 
  5  9  2  0  0  0  0 
  6 10  1  0  0  0  0 
  7 26  1  0  0  0  0 
  7  4  2  0  0  0  0 
  8  4  1  0  0  0  0 
  8 27  1  0  0  0  0 
  9 13  1  0  0  0  0 
  9 28  1  0  0  0  0 
 10 29  1  0  0  0  0 
 10 13  2  0  0  0  0 
 11  7  1  0  0  0  0 
 12  8  2  0  0  0  0 
 13 15  1  0  0  0  0 
 14 11  2  0  0  0  0 
 14 12  1  0  0  0  0 
 15  2  1  0  0  0  0 
 15 14  1  0  0  0  0 
 16  1  1  0  0  0  0 
 17  1  1  0  0  0  0 
 19  2  1  0  0  0  0 
 22  3  1  0  0  0  0 
 24  5  1  0  0  0  0 
 25  6  1  0  0  0  0 
 30 11  1  0  0  0  0 
 31 12  1  0  0  0  0 
M  END 
>  <HBA> 
0 
 
>  <HBD> 
0 
 
>  <TPSA> 
0.0 
 
>  <cid> 
13065 
 
>  <dipole> 
0.22 
 
>  <excitation_energy_1> 
5.186 
 
>  <excitation_energy_2> 
5.307 
 
>  <excitation_energy_3> 
5.513 
 
>  <excitation_energy_4> 
5.637 
 
>  <homo_energy> 
-6.21 
 
>  <homo_lumo_gap> 
6.212 
 
>  <logP> 
4.013 
 
>  <lumo_energy> 
0.003 
 
>  <melting_point> 
43.16 
 
>  <molecular_refractivity> 
65.39 
 
>  <oscillator_strength_1> 
0.0162 
 
>  <oscillator_strength_2> 
0.0003 
 
>  <oscillator_strength_3> 
0.0436 
 
>  <oscillator_strength_4> 
0.0087 
 
>  <open_babel_can_smiles> 
CC(c1ccccc1)(c1ccccc1)C 
 
>  <mulliken_charges> 
31 
1   -0.455541 
2   -0.455694 
3   -0.129635 
4   -0.129562 
5   -0.131786 
6   -0.129941 
7   -0.131906 
8   -0.129914 
9   -0.176866 
10   -0.198002 
11   -0.177019 
12   -0.198016 
13   0.16184 
14   0.162031 
15   -0.051876 
16   0.151387 
17   0.151249 
18   0.144328 
19   0.14445 
20   0.151309 
21   0.151343 
22   0.126389 
23   0.126342 
24   0.127791 
25   0.12611 
26   0.127805 
27   0.126074 
28   0.133275 
29   0.125347 
30   0.133409 
31   0.125278 
 
>  <lowdin_charges> 
31 
1   -0.44156 
2   -0.440044 
3   -0.162484 
4   -0.160412 
5   -0.155073 
6   -0.15742 
7   -0.15582 
8   -0.157951 
9   -0.161077 
10   -0.175824 
11   -0.161777 
12   -0.176187 
13   -0.000997 
14   -0.00026 
15   0.015528 
16   0.155486 
17   0.153254 
18   0.149481 
19   0.148651 
20   0.156679 
21   0.151526 
22   0.157156 
23   0.155845 
24   0.156222 
25   0.156563 
26   0.156854 
27   0.15634 
28   0.160576 
29   0.157894 
30   0.160524 
31   0.158308 
 
$$$$ 
 
