PCCDB-ID:  10968 
public computational chemistry database (PCCDB) project, http://pccdb.org 
 
 10  9  0  0  0  0  0  0  0  0999 V2000 
    1.0919   -0.0392    0.0998 C   0  0  0  0  0  0  0  0  0  0  0  0 
    2.6166    0.0070    0.0570 C   0  0  0  0  0  0  0  0  0  0  0  0 
    4.8271    1.1509   -1.0580 C   0  0  0  0  0  0  0  0  0  0  0  0 
    5.9894    1.0728   -0.9968 N   0  0  0  0  0  0  0  0  0  0  0  0 
    3.1371    1.2972   -1.1788 S   0  0  0  0  0  0  0  0  0  0  0  0 
    0.7749   -0.7942    0.8271 H   0  0  0  0  0  0  0  0  0  0  0  0 
    0.6698   -0.3100   -0.8734 H   0  0  0  0  0  0  0  0  0  0  0  0 
    0.6682    0.9228    0.4063 H   0  0  0  0  0  0  0  0  0  0  0  0 
    3.0403   -0.9489   -0.2589 H   0  0  0  0  0  0  0  0  0  0  0  0 
    3.0390    0.2820    1.0260 H   0  0  0  0  0  0  0  0  0  0  0  0 
  1  8  1  0  0  0  0 
  1  6  1  0  0  0  0 
  2  1  1  0  0  0  0 
  2 10  1  0  0  0  0 
  3  4  3  0  0  0  0 
  5  3  1  0  0  0  0 
  5  2  1  0  0  0  0 
  7  1  1  0  0  0  0 
  9  2  1  0  0  0  0 
M  END 
>  <HBA> 
2 
 
>  <HBD> 
0 
 
>  <TPSA> 
49.09 
 
>  <cid> 
10968 
 
>  <dipole> 
4.46 
 
>  <excitation_energy_1> 
4.919 
 
>  <excitation_energy_2> 
6.137 
 
>  <excitation_energy_3> 
6.729 
 
>  <excitation_energy_4> 
6.754 
 
>  <homo_energy> 
-7.162 
 
>  <homo_lumo_gap> 
6.446 
 
>  <logP> 
1.221 
 
>  <lumo_energy> 
-0.716 
 
>  <melting_point> 
18.3 
 
>  <molecular_refractivity> 
23.88 
 
>  <oscillator_strength_1> 
0.0001 
 
>  <oscillator_strength_2> 
0.0008 
 
>  <oscillator_strength_3> 
0.004 
 
>  <oscillator_strength_4> 
0.0154 
 
>  <open_babel_can_smiles> 
CCSC#N 
 
>  <mulliken_charges> 
10 
1   -0.467563 
2   -0.414263 
3   0.116049 
4   -0.382463 
5   0.217043 
6   0.174653 
7   0.175384 
8   0.175206 
9   0.203043 
10   0.202912 
 
>  <lowdin_charges> 
10 
1   -0.447642 
2   -0.351842 
3   -0.171607 
4   -0.119639 
5   0.243057 
6   0.170422 
7   0.164493 
8   0.164527 
9   0.174277 
10   0.173956 
 
$$$$ 
 
