PCCDB-ID:  6470 
public computational chemistry database (PCCDB) project, http://pccdb.org 
 
 36 37  0  0  0  0  0  0  0  0999 V2000 
    1.8368    2.3396   -2.0276 C   0  0  0  0  0  0  0  0  0  0  0  0 
    2.3322    0.9249   -2.2869 C   0  0  0  0  0  0  0  0  0  0  0  0 
   10.9591   -2.9956   -1.4833 C   0  0  0  0  0  0  0  0  0  0  0  0 
    9.6580   -3.4792   -1.6027 C   0  0  0  0  0  0  0  0  0  0  0  0 
   11.1865   -1.8948   -0.6537 C   0  0  0  0  0  0  0  0  0  0  0  0 
    8.5998   -2.8746   -0.9230 C   0  0  0  0  0  0  0  0  0  0  0  0 
   10.1421   -1.2940    0.0412 C   0  0  0  0  0  0  0  0  0  0  0  0 
    6.8240    0.9168   -0.3108 C   0  0  0  0  0  0  0  0  0  0  0  0 
    5.5193   -1.2538   -0.3974 C   0  0  0  0  0  0  0  0  0  0  0  0 
    7.7079    0.2900    0.7829 C   0  0  0  0  0  0  0  0  0  0  0  0 
    6.4562   -1.7721    0.7079 C   0  0  0  0  0  0  0  0  0  0  0  0 
    5.4224    0.2895   -0.3150 C   0  0  0  0  0  0  0  0  0  0  0  0 
    8.8163   -1.7649   -0.0809 C   0  0  0  0  0  0  0  0  0  0  0  0 
    4.5631    0.8372   -1.4433 C   0  0  0  0  0  0  0  0  0  0  0  0 
    7.7840   -1.1694    0.6680 N   0  0  0  0  0  0  0  0  0  0  0  0 
    4.9703    1.4742   -2.3918 O   0  0  0  0  0  0  0  0  0  0  0  0 
    3.2642    0.4967   -1.2645 O   0  0  0  0  0  0  0  0  0  0  0  0 
    1.0794    2.6114   -2.7720 H   0  0  0  0  0  0  0  0  0  0  0  0 
    2.6609    3.0548   -2.1004 H   0  0  0  0  0  0  0  0  0  0  0  0 
    1.3855    2.4184   -1.0330 H   0  0  0  0  0  0  0  0  0  0  0  0 
    2.8192    0.8488   -3.2622 H   0  0  0  0  0  0  0  0  0  0  0  0 
    1.5172    0.1988   -2.2305 H   0  0  0  0  0  0  0  0  0  0  0  0 
   11.7781   -3.4647   -2.0205 H   0  0  0  0  0  0  0  0  0  0  0  0 
    9.4499   -4.3315   -2.2451 H   0  0  0  0  0  0  0  0  0  0  0  0 
   12.1938   -1.5040   -0.5314 H   0  0  0  0  0  0  0  0  0  0  0  0 
    7.5997   -3.2663   -1.0695 H   0  0  0  0  0  0  0  0  0  0  0  0 
   10.3633   -0.4725    0.7148 H   0  0  0  0  0  0  0  0  0  0  0  0 
    7.2900    0.7675   -1.2913 H   0  0  0  0  0  0  0  0  0  0  0  0 
    6.7535    2.0004   -0.1560 H   0  0  0  0  0  0  0  0  0  0  0  0 
    4.5240   -1.6999   -0.2927 H   0  0  0  0  0  0  0  0  0  0  0  0 
    5.9115   -1.5407   -1.3816 H   0  0  0  0  0  0  0  0  0  0  0  0 
    7.3000    0.5334    1.7753 H   0  0  0  0  0  0  0  0  0  0  0  0 
    8.7091    0.7190    0.7375 H   0  0  0  0  0  0  0  0  0  0  0  0 
    6.5475   -2.8602    0.6767 H   0  0  0  0  0  0  0  0  0  0  0  0 
    6.0152   -1.5241    1.6853 H   0  0  0  0  0  0  0  0  0  0  0  0 
    4.9080    0.5343    0.6262 H   0  0  0  0  0  0  0  0  0  0  0  0 
  1 20  1  0  0  0  0 
  2 22  1  0  0  0  0 
  2  1  1  0  0  0  0 
  2 17  1  0  0  0  0 
  3  5  1  0  0  0  0 
  4  3  2  0  0  0  0 
  4  6  1  0  0  0  0 
  5 25  1  0  0  0  0 
  5  7  2  0  0  0  0 
  6 13  2  0  0  0  0 
  7 27  1  0  0  0  0 
  8 29  1  0  0  0  0 
  8 10  1  0  0  0  0 
  9 12  1  0  0  0  0 
  9 30  1  0  0  0  0 
  9 11  1  0  0  0  0 
 10 32  1  0  0  0  0 
 11 35  1  0  0  0  0 
 12  8  1  0  0  0  0 
 12 36  1  0  0  0  0 
 13  7  1  0  0  0  0 
 13 15  1  0  0  0  0 
 14 17  1  0  0  0  0 
 14 12  1  0  0  0  0 
 15 11  1  0  0  0  0 
 15 10  1  0  0  0  0 
 16 14  2  0  0  0  0 
 18  1  1  0  0  0  0 
 19  1  1  0  0  0  0 
 21  2  1  0  0  0  0 
 23  3  1  0  0  0  0 
 24  4  1  0  0  0  0 
 26  6  1  0  0  0  0 
 28  8  1  0  0  0  0 
 31  9  1  0  0  0  0 
 33 10  1  0  0  0  0 
 34 11  1  0  0  0  0 
M  END 
>  <HBA> 
3 
 
>  <HBD> 
0 
 
>  <TPSA> 
29.54 
 
>  <cid> 
6470 
 
>  <dipole> 
2.51 
 
>  <excitation_energy_1> 
4.391 
 
>  <excitation_energy_2> 
4.513 
 
>  <excitation_energy_3> 
4.649 
 
>  <excitation_energy_4> 
4.937 
 
>  <homo_energy> 
-5.07 
 
>  <homo_lumo_gap> 
5.298 
 
>  <logP> 
2.531 
 
>  <lumo_energy> 
0.229 
 
>  <melting_point> 
43.7 
 
>  <molecular_refractivity> 
71.6 
 
>  <oscillator_strength_1> 
0.0236 
 
>  <oscillator_strength_2> 
0.0576 
 
>  <oscillator_strength_3> 
0.0038 
 
>  <oscillator_strength_4> 
0.1744 
 
>  <open_babel_can_smiles> 
CCOC(=O)C1CCN(CC1)c1ccccc1 
 
>  <mulliken_charges> 
36 
1   -0.462018 
2   -0.044285 
3   -0.136038 
4   -0.137599 
5   -0.134398 
6   -0.192341 
7   -0.179768 
8   -0.25595 
9   -0.276764 
10   -0.166249 
11   -0.155409 
12   -0.182412 
13   0.337522 
14   0.630542 
15   -0.471524 
16   -0.484032 
17   -0.469399 
18   0.15085 
19   0.176592 
20   0.156288 
21   0.170454 
22   0.15173 
23   0.120147 
24   0.123289 
25   0.123698 
26   0.122 
27   0.126403 
28   0.166714 
29   0.142281 
30   0.152198 
31   0.155976 
32   0.1373 
33   0.157117 
34   0.158764 
35   0.141373 
36   0.146951 
 
>  <lowdin_charges> 
36 
1   -0.45575 
2   -0.128959 
3   -0.187613 
4   -0.147661 
5   -0.147753 
6   -0.21021 
7   -0.195718 
8   -0.282961 
9   -0.286266 
10   -0.196302 
11   -0.19894 
12   -0.154456 
13   0.057356 
14   0.199758 
15   -0.133623 
16   -0.266626 
17   -0.199233 
18   0.159924 
19   0.166059 
20   0.155059 
21   0.158231 
22   0.152447 
23   0.155601 
24   0.154978 
25   0.154372 
26   0.154799 
27   0.156051 
28   0.159753 
29   0.151042 
30   0.154932 
31   0.15083 
32   0.139122 
33   0.157608 
34   0.155604 
35   0.143499 
36   0.155044 
 
$$$$ 
 
