PCCDB-ID:  69517 
public computational chemistry database (PCCDB) project, http://pccdb.org 
 
 22 22  0  0  0  0  0  0  0  0999 V2000 
    1.1740   -0.1723    0.8192 C   0  0  0  0  0  0  0  0  0  0  0  0 
    2.1524   -0.1303   -0.3608 C   0  0  0  0  0  0  0  0  0  0  0  0 
    0.2343   -4.3364   -2.4627 C   0  0  0  0  0  0  0  0  0  0  0  0 
    0.3839   -3.0701   -3.0379 C   0  0  0  0  0  0  0  0  0  0  0  0 
    0.9182   -4.6250   -1.2838 C   0  0  0  0  0  0  0  0  0  0  0  0 
    1.2083   -2.1165   -2.4512 C   0  0  0  0  0  0  0  0  0  0  0  0 
    1.7373   -3.6701   -0.6762 C   0  0  0  0  0  0  0  0  0  0  0  0 
    1.8944   -2.3995   -1.2536 C   0  0  0  0  0  0  0  0  0  0  0  0 
    3.5347   -1.9198    0.4237 N   0  0  0  0  0  0  0  0  0  0  0  0 
    2.7706   -1.4179   -0.7213 N   0  0  0  0  0  0  0  0  0  0  0  0 
    0.7905    0.8336    1.0265 H   0  0  0  0  0  0  0  0  0  0  0  0 
    1.6614   -0.5522    1.7212 H   0  0  0  0  0  0  0  0  0  0  0  0 
    0.3227   -0.8231    0.5936 H   0  0  0  0  0  0  0  0  0  0  0  0 
    2.9734    0.5694   -0.1506 H   0  0  0  0  0  0  0  0  0  0  0  0 
    1.6513    0.2477   -1.2556 H   0  0  0  0  0  0  0  0  0  0  0  0 
   -0.4011   -5.0827   -2.9307 H   0  0  0  0  0  0  0  0  0  0  0  0 
   -0.1329   -2.8275   -3.9632 H   0  0  0  0  0  0  0  0  0  0  0  0 
    0.8102   -5.6010   -0.8168 H   0  0  0  0  0  0  0  0  0  0  0  0 
    1.3449   -1.1524   -2.9324 H   0  0  0  0  0  0  0  0  0  0  0  0 
    2.2290   -3.8960    0.2625 H   0  0  0  0  0  0  0  0  0  0  0  0 
    4.2000   -1.1656    0.6131 H   0  0  0  0  0  0  0  0  0  0  0  0 
    4.1193   -2.6599    0.0255 H   0  0  0  0  0  0  0  0  0  0  0  0 
  1 11  1  0  0  0  0 
  1 12  1  0  0  0  0 
  2 14  1  0  0  0  0 
  2  1  1  0  0  0  0 
  3  5  1  0  0  0  0 
  4  3  2  0  0  0  0 
  4  6  1  0  0  0  0 
  5 18  1  0  0  0  0 
  5  7  2  0  0  0  0 
  6  8  2  0  0  0  0 
  7 20  1  0  0  0  0 
  8 10  1  0  0  0  0 
  8  7  1  0  0  0  0 
  9 21  1  0  0  0  0 
 10  2  1  0  0  0  0 
 10  9  1  0  0  0  0 
 13  1  1  0  0  0  0 
 15  2  1  0  0  0  0 
 16  3  1  0  0  0  0 
 17  4  1  0  0  0  0 
 19  6  1  0  0  0  0 
 22  9  1  0  0  0  0 
M  END 
>  <HBA> 
2 
 
>  <HBD> 
1 
 
>  <TPSA> 
29.26 
 
>  <cid> 
69517 
 
>  <dipole> 
1.43 
 
>  <excitation_energy_1> 
4.177 
 
>  <excitation_energy_2> 
4.358 
 
>  <excitation_energy_3> 
4.67 
 
>  <excitation_energy_4> 
4.958 
 
>  <homo_energy> 
-4.92 
 
>  <homo_lumo_gap> 
5.135 
 
>  <logP> 
2.087 
 
>  <lumo_energy> 
0.215 
 
>  <melting_point> 
66.91 
 
>  <molecular_refractivity> 
43.36 
 
>  <oscillator_strength_1> 
0.0138 
 
>  <oscillator_strength_2> 
0.0088 
 
>  <oscillator_strength_3> 
0.1536 
 
>  <oscillator_strength_4> 
0.0066 
 
>  <open_babel_can_smiles> 
CCN(c1ccccc1)N 
 
>  <mulliken_charges> 
22 
1   -0.444716 
2   -0.145681 
3   -0.132667 
4   -0.137734 
5   -0.13745 
6   -0.167842 
7   -0.197567 
8   0.313061 
9   -0.572177 
10   -0.402739 
11   0.138911 
12   0.168018 
13   0.161564 
14   0.13423 
15   0.156364 
16   0.121194 
17   0.124456 
18   0.124649 
19   0.125469 
20   0.147683 
21   0.307925 
22   0.31505 
 
>  <lowdin_charges> 
22 
1   -0.461271 
2   -0.200353 
3   -0.181841 
4   -0.151548 
5   -0.148987 
6   -0.185076 
7   -0.203341 
8   0.041642 
9   -0.474507 
10   -0.10993 
11   0.150466 
12   0.161078 
13   0.159154 
14   0.139453 
15   0.15475 
16   0.155894 
17   0.155336 
18   0.154653 
19   0.156156 
20   0.167216 
21   0.258462 
22   0.262593 
 
$$$$ 
 
