PCCDB-ID:  70104 
public computational chemistry database (PCCDB) project, http://pccdb.org 
 
 16 16  0  0  0  0  0  0  0  0999 V2000 
    0.6996   -0.2358    1.1709 C   0  0  0  0  0  0  0  0  0  0  0  0 
    1.8461    0.6300   -2.3059 C   0  0  0  0  0  0  0  0  0  0  0  0 
    2.0330    2.0045   -1.7028 C   0  0  0  0  0  0  0  0  0  0  0  0 
    1.8922   -0.4315   -1.4929 C   0  0  0  0  0  0  0  0  0  0  0  0 
    2.3137    1.8563   -0.1854 C   0  0  0  0  0  0  0  0  0  0  0  0 
    3.4557   -0.5539    0.8821 O   0  0  0  0  0  0  0  0  0  0  0  0 
    2.2464    0.0429    0.2221 P   0  0  1  0  0  0  0  0  0  0  0  0 
   -0.1632    0.2320    0.6854 H   0  0  0  0  0  0  0  0  0  0  0  0 
    0.8171    0.1738    2.1794 H   0  0  0  0  0  0  0  0  0  0  0  0 
    0.5215   -1.3120    1.2589 H   0  0  0  0  0  0  0  0  0  0  0  0 
    1.6763    0.5470   -3.3790 H   0  0  0  0  0  0  0  0  0  0  0  0 
    1.1343    2.6106   -1.8810 H   0  0  0  0  0  0  0  0  0  0  0  0 
    2.8502    2.5300   -2.2143 H   0  0  0  0  0  0  0  0  0  0  0  0 
    1.7821   -1.4595   -1.8246 H   0  0  0  0  0  0  0  0  0  0  0  0 
    1.6008    2.4206    0.4234 H   0  0  0  0  0  0  0  0  0  0  0  0 
    3.3169    2.2030    0.0786 H   0  0  0  0  0  0  0  0  0  0  0  0 
  1 10  1  0  0  0  0 
  1  9  1  0  0  0  0 
  2  3  1  0  0  0  0 
  2  4  2  0  0  0  0 
  3  5  1  0  0  0  0 
  4  7  1  0  0  0  0 
  5 16  1  0  0  0  0 
  5  7  1  0  0  0  0 
  5 15  1  0  0  0  0 
  7  6  2  1  0  0  0 
  7  1  1  0  0  0  0 
  8  1  1  0  0  0  0 
 11  2  1  0  0  0  0 
 12  3  1  0  0  0  0 
 13  3  1  0  0  0  0 
 14  4  1  0  0  0  0 
M  END 
>  <HBA> 
1 
 
>  <HBD> 
0 
 
>  <TPSA> 
26.88 
 
>  <cid> 
70104 
 
>  <dipole> 
4.68 
 
>  <excitation_energy_1> 
5.438 
 
>  <excitation_energy_2> 
5.464 
 
>  <excitation_energy_3> 
6.13 
 
>  <excitation_energy_4> 
6.148 
 
>  <homo_energy> 
-6.8 
 
>  <homo_lumo_gap> 
6.476 
 
>  <logP> 
1.897 
 
>  <lumo_energy> 
-0.324 
 
>  <melting_point> 
17.21 
 
>  <molecular_refractivity> 
32.22 
 
>  <oscillator_strength_1> 
0.0085 
 
>  <oscillator_strength_2> 
0.0047 
 
>  <oscillator_strength_3> 
0.0158 
 
>  <oscillator_strength_4> 
0.0123 
 
>  <open_babel_can_smiles> 
C[P@]1(=O)CCC=C1 
 
>  <mulliken_charges> 
16 
1   -0.644992 
2   -0.090044 
3   -0.301595 
4   -0.326095 
5   -0.52565 
6   -0.549178 
7   0.885219 
8   0.167835 
9   0.188519 
10   0.189376 
11   0.145523 
12   0.160808 
13   0.167313 
14   0.164429 
15   0.170689 
16   0.197842 
 
>  <lowdin_charges> 
16 
1   -0.636008 
2   -0.123713 
3   -0.274163 
4   -0.356335 
5   -0.47166 
6   -0.619211 
7   0.923848 
8   0.173724 
9   0.183195 
10   0.183199 
11   0.158054 
12   0.159422 
13   0.162494 
14   0.178814 
15   0.172662 
16   0.185677 
 
$$$$ 
 
