PCCDB-ID:  7442 
public computational chemistry database (PCCDB) project, http://pccdb.org 
 
 18 18  0  0  0  0  0  0  0  0999 V2000 
    0.8778   -0.0519    0.0480 C   0  0  0  0  0  0  0  0  0  0  0  0 
    5.2128   -0.0067   -0.1663 C   0  0  0  0  0  0  0  0  0  0  0  0 
    4.5217   -1.2087   -0.0744 C   0  0  0  0  0  0  0  0  0  0  0  0 
    3.0881    1.1822   -0.1210 C   0  0  0  0  0  0  0  0  0  0  0  0 
    2.3822   -0.0124   -0.0280 C   0  0  0  0  0  0  0  0  0  0  0  0 
    4.4838    1.1794   -0.1883 C   0  0  0  0  0  0  0  0  0  0  0  0 
    3.1230   -1.2136   -0.0058 C   0  0  0  0  0  0  0  0  0  0  0  0 
    5.1968    2.4525   -0.2838 N   0  0  0  0  0  0  0  0  0  0  0  0 
    2.4057   -2.3671    0.0854 O   0  0  0  0  0  0  0  0  0  0  0  0 
    6.4284    2.4195   -0.3341 O   0  0  0  0  0  0  0  0  0  0  0  0 
    4.5276    3.4874   -0.3086 O   0  0  0  0  0  0  0  0  0  0  0  0 
    0.4612    0.9589    0.0316 H   0  0  0  0  0  0  0  0  0  0  0  0 
    0.5405   -0.5514    0.9636 H   0  0  0  0  0  0  0  0  0  0  0  0 
    0.4531   -0.6153   -0.7911 H   0  0  0  0  0  0  0  0  0  0  0  0 
    6.2936    0.0247   -0.2206 H   0  0  0  0  0  0  0  0  0  0  0  0 
    5.0679   -2.1494   -0.0554 H   0  0  0  0  0  0  0  0  0  0  0  0 
    2.5648    2.1309   -0.1420 H   0  0  0  0  0  0  0  0  0  0  0  0 
    3.0119   -3.1248    0.0958 H   0  0  0  0  0  0  0  0  0  0  0  0 
  1 13  1  0  0  0  0 
  2  3  1  0  0  0  0 
  3 16  1  0  0  0  0 
  3  7  2  0  0  0  0 
  4  5  2  0  0  0  0 
  5  7  1  0  0  0  0 
  5  1  1  0  0  0  0 
  6  2  2  0  0  0  0 
  6  4  1  0  0  0  0 
  7  9  1  0  0  0  0 
  8  6  1  0  0  0  0 
  9 18  1  0  0  0  0 
 10  8  2  0  0  0  0 
 11  8  2  0  0  0  0 
 12  1  1  0  0  0  0 
 14  1  1  0  0  0  0 
 15  2  1  0  0  0  0 
 17  4  1  0  0  0  0 
M  END 
>  <HBA> 
1 
 
>  <HBD> 
1 
 
>  <TPSA> 
66.05 
 
>  <cid> 
7442 
 
>  <dipole> 
5.61 
 
>  <excitation_energy_1> 
3.771 
 
>  <excitation_energy_2> 
4.087 
 
>  <excitation_energy_3> 
4.322 
 
>  <excitation_energy_4> 
4.362 
 
>  <homo_energy> 
-6.748 
 
>  <homo_lumo_gap> 
4.604 
 
>  <logP> 
2.132 
 
>  <lumo_energy> 
-2.144 
 
>  <melting_point> 
87.92 
 
>  <molecular_refractivity> 
42.25 
 
>  <oscillator_strength_1> 
0.0 
 
>  <oscillator_strength_2> 
0.1935 
 
>  <oscillator_strength_3> 
0.0004 
 
>  <oscillator_strength_4> 
0.0699 
 
>  <open_babel_can_smiles> 
O=N(=O)c1ccc(c(c1)C)O 
 
>  <mulliken_charges> 
18 
1   -0.51585 
2   -0.159436 
3   -0.198967 
4   -0.223159 
5   0.136314 
6   0.282763 
7   0.31794 
8   0.372294 
9   -0.627484 
10   -0.404896 
11   -0.403163 
12   0.16126 
13   0.174444 
14   0.174369 
15   0.183308 
16   0.136166 
17   0.177345 
18   0.416753 
 
>  <lowdin_charges> 
18 
1   -0.436426 
2   -0.128137 
3   -0.206127 
4   -0.139538 
5   -0.019725 
6   -0.016969 
7   0.112425 
8   0.306814 
9   -0.359667 
10   -0.255514 
11   -0.256131 
12   0.161171 
13   0.168856 
14   0.169306 
15   0.186627 
16   0.162033 
17   0.186006 
18   0.364997 
 
$$$$ 
 
