PCCDB-ID:  68441 
public computational chemistry database (PCCDB) project, http://pccdb.org 
 
 27 27  0  0  0  0  0  0  0  0999 V2000 
    3.4290   -0.4953    1.7375 C   0  0  0  0  0  0  0  0  0  0  0  0 
    1.9141    5.0680   -0.9536 C   0  0  0  0  0  0  0  0  0  0  0  0 
    6.7110    2.6385    3.8364 C   0  0  0  0  0  0  0  0  0  0  0  0 
    2.9522    2.8897    0.4835 C   0  0  0  0  0  0  0  0  0  0  0  0 
    4.5640    2.0630    2.1136 C   0  0  0  0  0  0  0  0  0  0  0  0 
    3.5076    1.8416    1.2260 C   0  0  0  0  0  0  0  0  0  0  0  0 
    3.4660    4.1775    0.6303 C   0  0  0  0  0  0  0  0  0  0  0  0 
    5.0644    3.3660    2.2549 C   0  0  0  0  0  0  0  0  0  0  0  0 
    4.5263    4.4386    1.5253 C   0  0  0  0  0  0  0  0  0  0  0  0 
    5.0877    5.8182    1.6309 C   0  0  0  0  0  0  0  0  0  0  0  0 
    5.4994    6.4828    0.7048 O   0  0  0  0  0  0  0  0  0  0  0  0 
    5.0798    6.2875    2.9050 O   0  0  0  0  0  0  0  0  0  0  0  0 
    2.9405    0.6208    1.0102 O   0  0  0  0  0  0  0  0  0  0  0  0 
    2.9725    5.2576   -0.0278 O   0  0  0  0  0  0  0  0  0  0  0  0 
    6.1149    3.6685    3.0659 O   0  0  0  0  0  0  0  0  0  0  0  0 
    2.8246   -1.3463    1.4184 H   0  0  0  0  0  0  0  0  0  0  0  0 
    3.3126   -0.3538    2.8199 H   0  0  0  0  0  0  0  0  0  0  0  0 
    4.4842   -0.6954    1.5094 H   0  0  0  0  0  0  0  0  0  0  0  0 
    1.7045    6.0559   -1.3669 H   0  0  0  0  0  0  0  0  0  0  0  0 
    1.0128    4.6792   -0.4621 H   0  0  0  0  0  0  0  0  0  0  0  0 
    2.2067    4.3889   -1.7644 H   0  0  0  0  0  0  0  0  0  0  0  0 
    7.1438    1.8554    3.2000 H   0  0  0  0  0  0  0  0  0  0  0  0 
    5.9921    2.1861    4.5318 H   0  0  0  0  0  0  0  0  0  0  0  0 
    7.5077    3.1200    4.4060 H   0  0  0  0  0  0  0  0  0  0  0  0 
    2.1306    2.6656   -0.1834 H   0  0  0  0  0  0  0  0  0  0  0  0 
    4.9969    1.2474    2.6732 H   0  0  0  0  0  0  0  0  0  0  0  0 
    5.4926    7.1707    2.8535 H   0  0  0  0  0  0  0  0  0  0  0  0 
  1 17  1  0  0  0  0 
  2 20  1  0  0  0  0 
  2 14  1  0  0  0  0 
  3 24  1  0  0  0  0 
  3 23  1  0  0  0  0 
  4  7  2  0  0  0  0 
  4  6  1  0  0  0  0 
  5  8  1  0  0  0  0 
  5 26  1  0  0  0  0 
  6  5  2  0  0  0  0 
  7  9  1  0  0  0  0 
  8 15  1  0  0  0  0 
  9 10  1  0  0  0  0 
  9  8  2  0  0  0  0 
 10 12  1  0  0  0  0 
 11 10  2  0  0  0  0 
 13  6  1  0  0  0  0 
 13  1  1  0  0  0  0 
 14  7  1  0  0  0  0 
 15  3  1  0  0  0  0 
 16  1  1  0  0  0  0 
 18  1  1  0  0  0  0 
 19  2  1  0  0  0  0 
 21  2  1  0  0  0  0 
 22  3  1  0  0  0  0 
 25  4  1  0  0  0  0 
 27 12  1  0  0  0  0 
M  END 
>  <HBA> 
5 
 
>  <HBD> 
1 
 
>  <TPSA> 
64.99 
 
>  <cid> 
68441 
 
>  <dipole> 
4.1 
 
>  <excitation_energy_1> 
4.726 
 
>  <excitation_energy_2> 
4.836 
 
>  <excitation_energy_3> 
5.301 
 
>  <excitation_energy_4> 
5.452 
 
>  <homo_energy> 
-5.761 
 
>  <homo_lumo_gap> 
5.527 
 
>  <logP> 
1.411 
 
>  <lumo_energy> 
-0.234 
 
>  <melting_point> 
112.97 
 
>  <molecular_refractivity> 
52.88 
 
>  <oscillator_strength_1> 
0.029 
 
>  <oscillator_strength_2> 
0.1533 
 
>  <oscillator_strength_3> 
0.0019 
 
>  <oscillator_strength_4> 
0.0183 
 
>  <open_babel_can_smiles> 
COc1cc(OC)cc(c1C(=O)O)OC 
 
>  <mulliken_charges> 
27 
1   -0.214442 
2   -0.214809 
3   -0.213563 
4   -0.270039 
5   -0.291111 
6   0.397357 
7   0.366033 
8   0.363597 
9   -0.031101 
10   0.512572 
11   -0.455825 
12   -0.553465 
13   -0.509676 
14   -0.500717 
15   -0.503672 
16   0.172474 
17   0.153676 
18   0.153527 
19   0.175297 
20   0.152721 
21   0.156807 
22   0.152025 
23   0.153118 
24   0.174716 
25   0.140651 
26   0.132717 
27   0.401131 
 
>  <lowdin_charges> 
27 
1   -0.274685 
2   -0.276448 
3   -0.280775 
4   -0.260448 
5   -0.289488 
6   0.128059 
7   0.129167 
8   0.129702 
9   -0.113361 
10   0.207348 
11   -0.260096 
12   -0.354122 
13   -0.193566 
14   -0.179392 
15   -0.185396 
16   0.165097 
17   0.144132 
18   0.144473 
19   0.16578 
20   0.146388 
21   0.149222 
22   0.146496 
23   0.147496 
24   0.166893 
25   0.173679 
26   0.169321 
27   0.354522 
 
$$$$ 
 
