PCCDB-ID:  37522 
public computational chemistry database (PCCDB) project, http://pccdb.org 
 
 28 28  0  0  0  0  0  0  0  0999 V2000 
    1.9693   -0.6349    0.5327 C   0  0  0  0  0  0  0  0  0  0  0  0 
    3.0734    0.5759   -1.4186 C   0  0  0  0  0  0  0  0  0  0  0  0 
    1.0281    1.5506   -0.3068 C   0  0  0  0  0  0  0  0  0  0  0  0 
    8.2652    3.5589    5.5100 C   0  0  0  0  0  0  0  0  0  0  0  0 
    8.1211    3.2739    4.1133 C   0  0  0  0  0  0  0  0  0  0  0  0 
    7.3425    2.7871    6.1467 C   0  0  0  0  0  0  0  0  0  0  0  0 
    6.5033    1.6548    2.8489 C   0  0  0  0  0  0  0  0  0  0  0  0 
    7.1247    2.3463    4.0037 C   0  0  0  0  0  0  0  0  0  0  0  0 
    4.2737    1.1637    1.2912 C   0  0  0  0  0  0  0  0  0  0  0  0 
    2.2953    0.7172   -0.1076 C   0  0  0  0  0  0  0  0  0  0  0  0 
    4.8782    0.1499    1.0181 O   0  0  0  0  0  0  0  0  0  0  0  0 
    6.6390    2.0429    5.2485 O   0  0  0  0  0  0  0  0  0  0  0  0 
    3.0717    1.5486    0.8461 O   0  0  0  0  0  0  0  0  0  0  0  0 
    4.8766    2.4392    2.4062 S   0  0  0  0  0  0  0  0  0  0  0  0 
    1.2924   -1.1937   -0.1234 H   0  0  0  0  0  0  0  0  0  0  0  0 
    1.4671   -0.4913    1.4955 H   0  0  0  0  0  0  0  0  0  0  0  0 
    2.8717   -1.2282    0.6897 H   0  0  0  0  0  0  0  0  0  0  0  0 
    2.4485    0.0640   -2.1591 H   0  0  0  0  0  0  0  0  0  0  0  0 
    3.9894   -0.0008   -1.2782 H   0  0  0  0  0  0  0  0  0  0  0  0 
    3.3323    1.5631   -1.8158 H   0  0  0  0  0  0  0  0  0  0  0  0 
    0.3529    1.0425   -1.0032 H   0  0  0  0  0  0  0  0  0  0  0  0 
    1.2725    2.5360   -0.7156 H   0  0  0  0  0  0  0  0  0  0  0  0 
    0.5055    1.6910    0.6445 H   0  0  0  0  0  0  0  0  0  0  0  0 
    8.9635    4.2424    5.9724 H   0  0  0  0  0  0  0  0  0  0  0  0 
    8.6839    3.7026    3.2954 H   0  0  0  0  0  0  0  0  0  0  0  0 
    7.0723    2.6478    7.1824 H   0  0  0  0  0  0  0  0  0  0  0  0 
    6.3029    0.6031    3.0634 H   0  0  0  0  0  0  0  0  0  0  0  0 
    7.1616    1.7100    1.9801 H   0  0  0  0  0  0  0  0  0  0  0  0 
  1 17  1  0  0  0  0 
  1 16  1  0  0  0  0 
  2 19  1  0  0  0  0 
  2 10  1  0  0  0  0 
  3 10  1  0  0  0  0 
  3 23  1  0  0  0  0 
  4 24  1  0  0  0  0 
  4  6  2  0  0  0  0 
  5  4  1  0  0  0  0 
  6 26  1  0  0  0  0 
  7 27  1  0  0  0  0 
  7  8  1  0  0  0  0 
  8  5  2  0  0  0  0 
  8 12  1  0  0  0  0 
  9 14  1  0  0  0  0 
 10  1  1  0  0  0  0 
 10 13  1  0  0  0  0 
 11  9  2  0  0  0  0 
 12  6  1  0  0  0  0 
 13  9  1  0  0  0  0 
 14  7  1  0  0  0  0 
 15  1  1  0  0  0  0 
 18  2  1  0  0  0  0 
 20  2  1  0  0  0  0 
 21  3  1  0  0  0  0 
 22  3  1  0  0  0  0 
 25  5  1  0  0  0  0 
 28  7  1  0  0  0  0 
M  END 
>  <HBA> 
4 
 
>  <HBD> 
0 
 
>  <TPSA> 
64.74 
 
>  <cid> 
37522 
 
>  <dipole> 
0.68 
 
>  <excitation_energy_1> 
5.375 
 
>  <excitation_energy_2> 
5.482 
 
>  <excitation_energy_3> 
5.621 
 
>  <excitation_energy_4> 
5.717 
 
>  <homo_energy> 
-6.076 
 
>  <homo_lumo_gap> 
6.049 
 
>  <logP> 
3.448 
 
>  <lumo_energy> 
-0.027 
 
>  <melting_point> 
45.83 
 
>  <molecular_refractivity> 
57.01 
 
>  <oscillator_strength_1> 
0.1061 
 
>  <oscillator_strength_2> 
0.0025 
 
>  <oscillator_strength_3> 
0.3153 
 
>  <oscillator_strength_4> 
0.0032 
 
>  <open_babel_can_smiles> 
O=C(OC(C)(C)C)SCc1ccco1 
 
>  <mulliken_charges> 
28 
1   -0.466117 
2   -0.466046 
3   -0.449274 
4   -0.179353 
5   -0.193489 
6   0.086298 
7   -0.501951 
8   0.335456 
9   0.472656 
10   0.298652 
11   -0.463035 
12   -0.423904 
13   -0.480518 
14   0.133751 
15   0.145912 
16   0.154494 
17   0.185047 
18   0.146456 
19   0.18428 
20   0.153598 
21   0.147626 
22   0.159119 
23   0.159745 
24   0.143089 
25   0.143213 
26   0.156614 
27   0.217134 
28   0.200548 
 
>  <lowdin_charges> 
28 
1   -0.457397 
2   -0.456914 
3   -0.444224 
4   -0.206056 
5   -0.208404 
6   -0.074624 
7   -0.360607 
8   0.054851 
9   0.087968 
10   0.147168 
11   -0.275013 
12   -0.095212 
13   -0.187804 
14   0.144565 
15   0.158025 
16   0.157462 
17   0.171824 
18   0.158248 
19   0.171238 
20   0.15686 
21   0.157177 
22   0.159165 
23   0.159879 
24   0.17134 
25   0.171322 
26   0.170937 
27   0.187336 
28   0.180886 
 
$$$$ 
 
