PCCDB-ID:  21208 
public computational chemistry database (PCCDB) project, http://pccdb.org 
 
 18 18  0  0  0  0  0  0  0  0999 V2000 
   -1.3831   -0.0542   -0.1136 C   0  0  0  0  0  0  0  0  0  0  0  0 
   -0.7323    1.1554   -0.1533 C   0  0  0  0  0  0  0  0  0  0  0  0 
    0.7650   -1.1767    0.0497 C   0  0  0  0  0  0  0  0  0  0  0  0 
   -0.6262   -1.2503   -0.0111 C   0  0  0  0  0  0  0  0  0  0  0  0 
    1.4554    0.0519    0.0193 C   0  0  0  0  0  0  0  0  0  0  0  0 
    0.6711    1.2406   -0.0936 C   0  0  0  0  0  0  0  0  0  0  0  0 
   -1.2760   -2.4666    0.0742 N   0  0  0  0  0  0  0  0  0  0  0  0 
    2.8109    0.0631    0.1183 N   0  0  0  0  0  0  0  0  0  0  0  0 
    1.2565    2.5495   -0.1660 N   0  0  0  0  0  0  0  0  0  0  0  0 
    0.5105    3.5307   -0.2510 O   0  0  0  0  0  0  0  0  0  0  0  0 
    2.5014    2.6636   -0.1447 O   0  0  0  0  0  0  0  0  0  0  0  0 
   -2.4673   -0.0996   -0.1566 H   0  0  0  0  0  0  0  0  0  0  0  0 
   -1.2847    2.0826   -0.2394 H   0  0  0  0  0  0  0  0  0  0  0  0 
    1.3467   -2.0918    0.1376 H   0  0  0  0  0  0  0  0  0  0  0  0 
   -2.2233   -2.5019   -0.2765 H   0  0  0  0  0  0  0  0  0  0  0  0 
   -0.7369   -3.2945   -0.1399 H   0  0  0  0  0  0  0  0  0  0  0  0 
    3.3172   -0.8060    0.0539 H   0  0  0  0  0  0  0  0  0  0  0  0 
    3.2857    0.9445   -0.0263 H   0  0  0  0  0  0  0  0  0  0  0  0 
  1  4  1  0  0  0  0 
  2  1  2  0  0  0  0 
  2  6  1  0  0  0  0 
  3 14  1  0  0  0  0 
  4  3  2  0  0  0  0 
  4  7  1  0  0  0  0 
  5  3  1  0  0  0  0 
  5  8  1  0  0  0  0 
  6  5  2  0  0  0  0 
  9 11  2  0  0  0  0 
  9  6  1  0  0  0  0 
 10  9  2  0  0  0  0 
 12  1  1  0  0  0  0 
 13  2  1  0  0  0  0 
 15  7  1  0  0  0  0 
 16  7  1  0  0  0  0 
 17  8  1  0  0  0  0 
 18  8  1  0  0  0  0 
M  END 
>  <HBA> 
2 
 
>  <HBD> 
2 
 
>  <TPSA> 
97.86 
 
>  <cid> 
21208 
 
>  <dipole> 
6.92 
 
>  <excitation_energy_1> 
3.497 
 
>  <excitation_energy_2> 
3.858 
 
>  <excitation_energy_3> 
3.969 
 
>  <excitation_energy_4> 
4.491 
 
>  <homo_energy> 
-5.84 
 
>  <homo_lumo_gap> 
4.093 
 
>  <logP> 
2.445 
 
>  <lumo_energy> 
-1.747 
 
>  <melting_point> 
142.43 
 
>  <molecular_refractivity> 
44.07 
 
>  <oscillator_strength_1> 
0.0688 
 
>  <oscillator_strength_2> 
0.0034 
 
>  <oscillator_strength_3> 
0.2933 
 
>  <oscillator_strength_4> 
0.0005 
 
>  <open_babel_can_smiles> 
Nc1ccc(c(c1)N)N(=O)=O 
 
>  <mulliken_charges> 
18 
1   -0.190964 
2   -0.169886 
3   -0.260844 
4   0.357991 
5   0.358817 
6   0.25282 
7   -0.796144 
8   -0.821249 
9   0.353518 
10   -0.419121 
11   -0.461458 
12   0.127292 
13   0.180516 
14   0.113119 
15   0.333519 
16   0.330862 
17   0.330708 
18   0.380505 
 
>  <lowdin_charges> 
18 
1   -0.218926 
2   -0.119382 
3   -0.25659 
4   0.091705 
5   0.100446 
6   -0.0682 
7   -0.4648 
8   -0.457224 
9   0.311402 
10   -0.272598 
11   -0.302657 
12   0.157405 
13   0.187714 
14   0.152979 
15   0.283692 
16   0.283419 
17   0.284673 
18   0.306942 
 
$$$$ 
 
