PCCDB-ID:  19055 
public computational chemistry database (PCCDB) project, http://pccdb.org 
 
 14 14  0  0  0  0  0  0  0  0999 V2000 
   -0.8132    1.2012   -0.0035 C   0  0  0  0  0  0  0  0  0  0  0  0 
    1.3395    0.0279   -0.0673 C   0  0  0  0  0  0  0  0  0  0  0  0 
   -1.4354   -0.0014    0.0062 C   0  0  0  0  0  0  0  0  0  0  0  0 
    0.6700   -1.1460   -0.0565 C   0  0  0  0  0  0  0  0  0  0  0  0 
    0.6482    1.3197   -0.0725 C   0  0  0  0  0  0  0  0  0  0  0  0 
    1.3397    2.4140   -0.1172 N   0  0  0  0  0  0  0  0  0  0  0  0 
   -0.7109   -1.1662   -0.1045 N   0  0  0  0  0  0  0  0  0  0  0  0 
   -1.3568   -2.3663    0.2200 O   0  0  0  0  0  0  0  0  0  0  0  0 
   -1.4170    2.1027    0.0439 H   0  0  0  0  0  0  0  0  0  0  0  0 
    2.4235    0.0353   -0.0711 H   0  0  0  0  0  0  0  0  0  0  0  0 
   -2.5081   -0.1380    0.0757 H   0  0  0  0  0  0  0  0  0  0  0  0 
    1.1378   -2.1228   -0.0349 H   0  0  0  0  0  0  0  0  0  0  0  0 
    0.7100    3.2238   -0.1069 H   0  0  0  0  0  0  0  0  0  0  0  0 
   -1.5818   -2.7637   -0.6411 H   0  0  0  0  0  0  0  0  0  0  0  0 
  1  3  2  0  0  0  0 
  1  9  1  0  0  0  0 
  2  4  2  0  0  0  0 
  3 11  1  0  0  0  0 
  4 12  1  0  0  0  0 
  5  2  1  0  0  0  0 
  5  1  1  0  0  0  0 
  6 13  1  0  0  0  0 
  6  5  2  0  0  0  0 
  7  4  1  0  0  0  0 
  7  3  1  0  0  0  0 
  7  8  1  0  0  0  0 
 10  2  1  0  0  0  0 
 14  8  1  0  0  0  0 
M  END 
>  <HBA> 
3 
 
>  <HBD> 
2 
 
>  <TPSA> 
49.01 
 
>  <cid> 
19055 
 
>  <dipole> 
4.89 
 
>  <excitation_energy_1> 
4.167 
 
>  <excitation_energy_2> 
4.372 
 
>  <excitation_energy_3> 
4.882 
 
>  <excitation_energy_4> 
4.954 
 
>  <homo_energy> 
-5.287 
 
>  <homo_lumo_gap> 
5.031 
 
>  <logP> 
0.305 
 
>  <lumo_energy> 
-0.256 
 
>  <melting_point> 
102.83 
 
>  <molecular_refractivity> 
28.5 
 
>  <oscillator_strength_1> 
0.0164 
 
>  <oscillator_strength_2> 
0.0044 
 
>  <oscillator_strength_3> 
0.2539 
 
>  <oscillator_strength_4> 
0.0045 
 
>  <open_babel_can_smiles> 
On1ccc(=N)cc1 
 
>  <mulliken_charges> 
14 
1   -0.221733 
2   -0.180258 
3   0.089173 
4   0.078674 
5   0.309968 
6   -0.666967 
7   -0.232757 
8   -0.493453 
9   0.137198 
10   0.151931 
11   0.170835 
12   0.169735 
13   0.262034 
14   0.42562 
 
>  <lowdin_charges> 
14 
1   -0.220124 
2   -0.183974 
3   -0.095663 
4   -0.103904 
5   0.046435 
6   -0.434928 
7   0.056958 
8   -0.359818 
9   0.167306 
10   0.176838 
11   0.174563 
12   0.17617 
13   0.238444 
14   0.361696 
 
$$$$ 
 
