PCCDB-ID:  69406 
public computational chemistry database (PCCDB) project, http://pccdb.org 
 
 30 29  0  0  0  0  0  0  0  0999 V2000 
    1.0970    1.2486   -1.1987 C   0  0  0  0  0  0  0  0  0  0  0  0 
    7.3293   -2.8077   -4.2817 C   0  0  0  0  0  0  0  0  0  0  0  0 
    8.7388   -3.3234   -2.2543 C   0  0  0  0  0  0  0  0  0  0  0  0 
    2.5389    0.8869   -0.8278 C   0  0  0  0  0  0  0  0  0  0  0  0 
    3.1662   -0.1467   -1.7721 C   0  0  0  0  0  0  0  0  0  0  0  0 
    4.6105   -0.5143   -1.4091 C   0  0  0  0  0  0  0  0  0  0  0  0 
    5.2301   -1.5560   -2.3506 C   0  0  0  0  0  0  0  0  0  0  0  0 
    6.6788   -1.8998   -1.9796 C   0  0  0  0  0  0  0  0  0  0  0  0 
    7.3131   -3.0631   -2.7661 C   0  0  0  0  0  0  0  0  0  0  0  0 
    6.4901   -4.2087   -2.4778 O   0  0  0  0  0  0  0  0  0  0  0  0 
    0.6779    1.9879   -0.5064 H   0  0  0  0  0  0  0  0  0  0  0  0 
    0.4482    0.3643   -1.1745 H   0  0  0  0  0  0  0  0  0  0  0  0 
    1.0417    1.6704   -2.2100 H   0  0  0  0  0  0  0  0  0  0  0  0 
    7.8889   -1.8981   -4.5296 H   0  0  0  0  0  0  0  0  0  0  0  0 
    6.3126   -2.7081   -4.6723 H   0  0  0  0  0  0  0  0  0  0  0  0 
    7.8115   -3.6438   -4.8056 H   0  0  0  0  0  0  0  0  0  0  0  0 
    9.3923   -2.4601   -2.4264 H   0  0  0  0  0  0  0  0  0  0  0  0 
    9.1842   -4.1849   -2.7695 H   0  0  0  0  0  0  0  0  0  0  0  0 
    8.7247   -3.5399   -1.1809 H   0  0  0  0  0  0  0  0  0  0  0  0 
    2.5664    0.5005    0.2011 H   0  0  0  0  0  0  0  0  0  0  0  0 
    3.1559    1.7969   -0.8261 H   0  0  0  0  0  0  0  0  0  0  0  0 
    3.1369    0.2398   -2.8021 H   0  0  0  0  0  0  0  0  0  0  0  0 
    2.5493   -1.0577   -1.7733 H   0  0  0  0  0  0  0  0  0  0  0  0 
    4.6389   -0.8961   -0.3776 H   0  0  0  0  0  0  0  0  0  0  0  0 
    5.2280    0.3969   -1.4112 H   0  0  0  0  0  0  0  0  0  0  0  0 
    5.1837   -1.1758   -3.3805 H   0  0  0  0  0  0  0  0  0  0  0  0 
    4.6310   -2.4743   -2.3297 H   0  0  0  0  0  0  0  0  0  0  0  0 
    6.7184   -2.1699   -0.9156 H   0  0  0  0  0  0  0  0  0  0  0  0 
    7.3149   -1.0119   -2.1012 H   0  0  0  0  0  0  0  0  0  0  0  0 
    6.8534   -4.9581   -2.9759 H   0  0  0  0  0  0  0  0  0  0  0  0 
  1 12  1  0  0  0  0 
  1  4  1  0  0  0  0 
  1 11  1  0  0  0  0 
  2  9  1  0  0  0  0 
  3 19  1  0  0  0  0 
  4 21  1  0  0  0  0 
  4 20  1  0  0  0  0 
  5  6  1  0  0  0  0 
  5  4  1  0  0  0  0 
  6 24  1  0  0  0  0 
  7 27  1  0  0  0  0 
  7  8  1  0  0  0  0 
  7  6  1  0  0  0  0 
  8 28  1  0  0  0  0 
  9 10  1  0  0  0  0 
  9  3  1  0  0  0  0 
  9  8  1  0  0  0  0 
 13  1  1  0  0  0  0 
 14  2  1  0  0  0  0 
 15  2  1  0  0  0  0 
 16  2  1  0  0  0  0 
 17  3  1  0  0  0  0 
 18  3  1  0  0  0  0 
 22  5  1  0  0  0  0 
 23  5  1  0  0  0  0 
 25  6  1  0  0  0  0 
 26  7  1  0  0  0  0 
 29  8  1  0  0  0  0 
 30 10  1  0  0  0  0 
M  END 
>  <HBA> 
1 
 
>  <HBD> 
1 
 
>  <TPSA> 
20.23 
 
>  <cid> 
69406 
 
>  <dipole> 
1.47 
 
>  <excitation_energy_1> 
6.361 
 
>  <excitation_energy_2> 
7.305 
 
>  <excitation_energy_3> 
7.373 
 
>  <excitation_energy_4> 
7.416 
 
>  <homo_energy> 
-7.04 
 
>  <homo_lumo_gap> 
8.83 
 
>  <logP> 
2.728 
 
>  <lumo_energy> 
1.791 
 
>  <melting_point> 
1.09 
 
>  <molecular_refractivity> 
46.58 
 
>  <oscillator_strength_1> 
0.0208 
 
>  <oscillator_strength_2> 
0.0066 
 
>  <oscillator_strength_3> 
0.0024 
 
>  <oscillator_strength_4> 
0.0391 
 
>  <open_babel_can_smiles> 
CCCCCCC(O)(C)C 
 
>  <mulliken_charges> 
30 
1   -0.441035 
2   -0.462642 
3   -0.452415 
4   -0.246106 
5   -0.245307 
6   -0.255252 
7   -0.264116 
8   -0.253222 
9   0.305873 
10   -0.637238 
11   0.140121 
12   0.14113 
13   0.140028 
14   0.141229 
15   0.160442 
16   0.127275 
17   0.139644 
18   0.126617 
19   0.153321 
20   0.129726 
21   0.128324 
22   0.1241 
23   0.127998 
24   0.128094 
25   0.122489 
26   0.124173 
27   0.155709 
28   0.136115 
29   0.122742 
30   0.382184 
 
>  <lowdin_charges> 
30 
1   -0.445317 
2   -0.460841 
3   -0.455955 
4   -0.271179 
5   -0.273527 
6   -0.272499 
7   -0.277023 
8   -0.276659 
9   0.125105 
10   -0.467168 
11   0.149478 
12   0.146453 
13   0.144768 
14   0.152281 
15   0.157001 
16   0.143784 
17   0.15116 
18   0.143076 
19   0.153904 
20   0.137427 
21   0.138015 
22   0.13492 
23   0.138336 
24   0.136665 
25   0.134984 
26   0.135207 
27   0.15226 
28   0.145359 
29   0.140919 
30   0.339065 
 
$$$$ 
 
