PCCDB-ID:  17694 
public computational chemistry database (PCCDB) project, http://pccdb.org 
 
 22 21  0  0  0  0  0  0  0  0999 V2000 
    2.5540    1.0481    1.4249 C   0  0  0  0  0  0  0  0  0  0  0  0 
    4.7494   -0.1513    1.6659 C   0  0  0  0  0  0  0  0  0  0  0  0 
    3.2428   -3.6128   -1.5889 C   0  0  0  0  0  0  0  0  0  0  0  0 
    1.7847   -3.5672   -1.1064 C   0  0  0  0  0  0  0  0  0  0  0  0 
    3.8740   -2.2452   -1.8283 C   0  0  0  0  0  0  0  0  0  0  0  0 
    3.4391    0.1455    0.9833 C   0  0  0  0  0  0  0  0  0  0  0  0 
    3.0864   -0.5977   -0.2668 C   0  0  0  0  0  0  0  0  0  0  0  0 
    0.9430   -2.8329   -1.9739 O   0  0  0  0  0  0  0  0  0  0  0  0 
    2.0640   -0.4186   -0.9127 O   0  0  0  0  0  0  0  0  0  0  0  0 
    4.0392   -1.4894   -0.5987 O   0  0  0  0  0  0  0  0  0  0  0  0 
    2.7390    1.6287    2.3240 H   0  0  0  0  0  0  0  0  0  0  0  0 
    1.6255    1.2217    0.8913 H   0  0  0  0  0  0  0  0  0  0  0  0 
    4.8616    0.4625    2.5644 H   0  0  0  0  0  0  0  0  0  0  0  0 
    5.5979    0.0473    1.0014 H   0  0  0  0  0  0  0  0  0  0  0  0 
    4.8186   -1.2060    1.9545 H   0  0  0  0  0  0  0  0  0  0  0  0 
    3.2811   -4.1476   -2.5472 H   0  0  0  0  0  0  0  0  0  0  0  0 
    3.8527   -4.1802   -0.8731 H   0  0  0  0  0  0  0  0  0  0  0  0 
    1.7420   -3.1749   -0.0780 H   0  0  0  0  0  0  0  0  0  0  0  0 
    1.3929   -4.5901   -1.0720 H   0  0  0  0  0  0  0  0  0  0  0  0 
    3.2771   -1.6561   -2.5275 H   0  0  0  0  0  0  0  0  0  0  0  0 
    4.8897   -2.3494   -2.2168 H   0  0  0  0  0  0  0  0  0  0  0  0 
    1.1108   -1.8913   -1.7820 H   0  0  0  0  0  0  0  0  0  0  0  0 
  1 11  1  0  0  0  0 
  2 15  1  0  0  0  0 
  2 13  1  0  0  0  0 
  3  4  1  0  0  0  0 
  3 17  1  0  0  0  0 
  4 19  1  0  0  0  0 
  4 18  1  0  0  0  0 
  5  3  1  0  0  0  0 
  5 10  1  0  0  0  0 
  6  1  2  0  0  0  0 
  6  2  1  0  0  0  0 
  7  6  1  0  0  0  0 
  8 22  1  0  0  0  0 
  8  4  1  0  0  0  0 
  9  7  2  0  0  0  0 
 10  7  1  0  0  0  0 
 12  1  1  0  0  0  0 
 14  2  1  0  0  0  0 
 16  3  1  0  0  0  0 
 20  5  1  0  0  0  0 
 21  5  1  0  0  0  0 
M  END 
>  <HBA> 
3 
 
>  <HBD> 
1 
 
>  <TPSA> 
46.53 
 
>  <cid> 
17694 
 
>  <dipole> 
3.51 
 
>  <excitation_energy_1> 
4.778 
 
>  <excitation_energy_2> 
4.968 
 
>  <excitation_energy_3> 
5.78 
 
>  <excitation_energy_4> 
6.236 
 
>  <homo_energy> 
-6.817 
 
>  <homo_lumo_gap> 
5.47 
 
>  <logP> 
0.488 
 
>  <lumo_energy> 
-1.347 
 
>  <melting_point> 
-13.35 
 
>  <molecular_refractivity> 
37.74 
 
>  <oscillator_strength_1> 
0.0003 
 
>  <oscillator_strength_2> 
0.0003 
 
>  <oscillator_strength_3> 
0.265 
 
>  <oscillator_strength_4> 
0.0633 
 
>  <open_babel_can_smiles> 
CC(=C)C(=O)OCCCO 
 
>  <mulliken_charges> 
22 
1   -0.354401 
2   -0.50356 
3   -0.277101 
4   -0.037193 
5   -0.073031 
6   0.126803 
7   0.607734 
8   -0.644988 
9   -0.518384 
10   -0.468194 
11   0.152135 
12   0.181855 
13   0.153084 
14   0.169892 
15   0.169959 
16   0.15162 
17   0.137941 
18   0.122254 
19   0.142527 
20   0.175842 
21   0.157951 
22   0.427258 
 
>  <lowdin_charges> 
22 
1   -0.283888 
2   -0.438012 
3   -0.304932 
4   -0.135522 
5   -0.136095 
6   -0.033272 
7   0.202146 
8   -0.480951 
9   -0.288082 
10   -0.181872 
11   0.165635 
12   0.181429 
13   0.158867 
14   0.16676 
15   0.164996 
16   0.157896 
17   0.150595 
18   0.125207 
19   0.145333 
20   0.163276 
21   0.156813 
22   0.343674 
 
$$$$ 
 
