PCCDB-ID:  41654 
public computational chemistry database (PCCDB) project, http://pccdb.org 
 
 35 34  0  0  0  0  0  0  0  0999 V2000 
    0.8305    1.9178   -1.9640 C   0  0  0  0  0  0  0  0  0  0  0  0 
    5.0323   -3.4870   -0.9194 C   0  0  0  0  0  0  0  0  0  0  0  0 
    4.8622    1.6769   -5.4103 C   0  0  0  0  0  0  0  0  0  0  0  0 
    4.8704    1.9719    0.1668 C   0  0  0  0  0  0  0  0  0  0  0  0 
    2.3206    2.1459   -1.6857 C   0  0  0  0  0  0  0  0  0  0  0  0 
    4.8592   -2.5440    0.2611 C   0  0  0  0  0  0  0  0  0  0  0  0 
    5.7614    0.8468   -4.5071 C   0  0  0  0  0  0  0  0  0  0  0  0 
    3.0213    0.8572   -1.2305 C   0  0  0  0  0  0  0  0  0  0  0  0 
    5.2035   -0.3530   -0.6035 C   0  0  0  0  0  0  0  0  0  0  0  0 
    5.2438    1.4682   -2.2631 C   0  0  0  0  0  0  0  0  0  0  0  0 
    4.5481    0.9880   -0.9777 C   0  0  0  0  0  0  0  0  0  0  0  0 
    6.4019   -0.5374   -0.6486 O   0  0  0  0  0  0  0  0  0  0  0  0 
    5.8014    2.5339   -2.3984 O   0  0  0  0  0  0  0  0  0  0  0  0 
    4.3172   -1.2668   -0.1615 O   0  0  0  0  0  0  0  0  0  0  0  0 
    5.1168    0.5482   -3.2443 O   0  0  0  0  0  0  0  0  0  0  0  0 
    0.3392    2.8456   -2.2777 H   0  0  0  0  0  0  0  0  0  0  0  0 
    0.3113    1.5512   -1.0699 H   0  0  0  0  0  0  0  0  0  0  0  0 
    0.6835    1.1763   -2.7587 H   0  0  0  0  0  0  0  0  0  0  0  0 
    5.3731   -4.4663   -0.5641 H   0  0  0  0  0  0  0  0  0  0  0  0 
    5.7772   -3.0962   -1.6179 H   0  0  0  0  0  0  0  0  0  0  0  0 
    4.0848   -3.6242   -1.4505 H   0  0  0  0  0  0  0  0  0  0  0  0 
    5.3412    1.8125   -6.3870 H   0  0  0  0  0  0  0  0  0  0  0  0 
    4.6852    2.6649   -4.9762 H   0  0  0  0  0  0  0  0  0  0  0  0 
    3.8996    1.1788   -5.5671 H   0  0  0  0  0  0  0  0  0  0  0  0 
    4.3575    1.6612    1.0836 H   0  0  0  0  0  0  0  0  0  0  0  0 
    4.5516    2.9832   -0.0933 H   0  0  0  0  0  0  0  0  0  0  0  0 
    5.9466    1.9973    0.3532 H   0  0  0  0  0  0  0  0  0  0  0  0 
    2.4288    2.9253   -0.9215 H   0  0  0  0  0  0  0  0  0  0  0  0 
    2.8018    2.5381   -2.5915 H   0  0  0  0  0  0  0  0  0  0  0  0 
    5.8080   -2.3691    0.7737 H   0  0  0  0  0  0  0  0  0  0  0  0 
    4.1231   -2.9233    0.9740 H   0  0  0  0  0  0  0  0  0  0  0  0 
    6.7041    1.3602   -4.3041 H   0  0  0  0  0  0  0  0  0  0  0  0 
    5.9690   -0.1346   -4.9404 H   0  0  0  0  0  0  0  0  0  0  0  0 
    2.8589    0.0751   -1.9804 H   0  0  0  0  0  0  0  0  0  0  0  0 
    2.5574    0.4989   -0.3047 H   0  0  0  0  0  0  0  0  0  0  0  0 
  1  5  1  0  0  0  0 
  1 17  1  0  0  0  0 
  2 19  1  0  0  0  0 
  2  6  1  0  0  0  0 
  3 23  1  0  0  0  0 
  3  7  1  0  0  0  0 
  4 27  1  0  0  0  0 
  4 25  1  0  0  0  0 
  5  8  1  0  0  0  0 
  5 28  1  0  0  0  0 
  6 30  1  0  0  0  0 
  6 31  1  0  0  0  0 
  7 32  1  0  0  0  0 
  7 15  1  0  0  0  0 
  8 11  1  0  0  0  0 
  8 35  1  0  0  0  0 
  9 14  1  0  0  0  0 
 10 11  1  0  0  0  0 
 11  9  1  0  0  0  0 
 11  4  1  0  0  0  0 
 12  9  2  0  0  0  0 
 13 10  2  0  0  0  0 
 14  6  1  0  0  0  0 
 15 10  1  0  0  0  0 
 16  1  1  0  0  0  0 
 18  1  1  0  0  0  0 
 20  2  1  0  0  0  0 
 21  2  1  0  0  0  0 
 22  3  1  0  0  0  0 
 24  3  1  0  0  0  0 
 26  4  1  0  0  0  0 
 29  5  1  0  0  0  0 
 33  7  1  0  0  0  0 
 34  8  1  0  0  0  0 
M  END 
>  <HBA> 
4 
 
>  <HBD> 
0 
 
>  <TPSA> 
52.6 
 
>  <cid> 
41654 
 
>  <dipole> 
2.96 
 
>  <excitation_energy_1> 
5.697 
 
>  <excitation_energy_2> 
5.748 
 
>  <excitation_energy_3> 
6.581 
 
>  <excitation_energy_4> 
6.65 
 
>  <homo_energy> 
-7.227 
 
>  <homo_lumo_gap> 
7.399 
 
>  <logP> 
1.919 
 
>  <lumo_energy> 
0.171 
 
>  <melting_point> 
13.69 
 
>  <molecular_refractivity> 
57.3 
 
>  <oscillator_strength_1> 
0.0028 
 
>  <oscillator_strength_2> 
0.0024 
 
>  <oscillator_strength_3> 
0.0018 
 
>  <oscillator_strength_4> 
0.0211 
 
>  <open_babel_can_smiles> 
CCCC(C(=O)OCC)(C(=O)OCC)C 
 
>  <mulliken_charges> 
35 
1   -0.443189 
2   -0.461765 
3   -0.464348 
4   -0.456136 
5   -0.26841 
6   -0.047233 
7   -0.0439 
8   -0.259456 
9   0.650845 
10   0.66218 
11   -0.105316 
12   -0.490987 
13   -0.485446 
14   -0.464184 
15   -0.469955 
16   0.145507 
17   0.143385 
18   0.143551 
19   0.150969 
20   0.179987 
21   0.157966 
22   0.151388 
23   0.177172 
24   0.155936 
25   0.145463 
26   0.172991 
27   0.178349 
28   0.141441 
29   0.145419 
30   0.172856 
31   0.153514 
32   0.175137 
33   0.154358 
34   0.152437 
35   0.149475 
 
>  <lowdin_charges> 
35 
1   -0.444238 
2   -0.455009 
3   -0.455117 
4   -0.432188 
5   -0.279316 
6   -0.127433 
7   -0.1241 
8   -0.274313 
9   0.196856 
10   0.202024 
11   -0.033835 
12   -0.268316 
13   -0.255154 
14   -0.182911 
15   -0.190843 
16   0.151747 
17   0.147897 
18   0.147873 
19   0.159095 
20   0.168477 
21   0.156601 
22   0.15918 
23   0.164553 
24   0.155155 
25   0.152736 
26   0.165372 
27   0.168215 
28   0.145345 
29   0.145795 
30   0.160149 
31   0.154124 
32   0.161445 
33   0.153268 
34   0.153978 
35   0.152887 
 
$$$$ 
 
