PCCDB-ID:  8175 
public computational chemistry database (PCCDB) project, http://pccdb.org 
 
 31 30  0  0  0  0  0  0  0  0999 V2000 
    4.7569    1.0653    0.9862 C   0  0  0  0  0  0  0  0  0  0  0  0 
    5.5214    1.8196   -0.1081 C   0  0  0  0  0  0  0  0  0  0  0  0 
    6.6016    0.9843   -0.8182 C   0  0  0  0  0  0  0  0  0  0  0  0 
    6.0507   -0.1981   -1.6287 C   0  0  0  0  0  0  0  0  0  0  0  0 
    7.0781   -0.9576   -2.4882 C   0  0  0  0  0  0  0  0  0  0  0  0 
    8.1903   -1.6972   -1.7068 C   0  0  0  0  0  0  0  0  0  0  0  0 
    9.4886   -0.8923   -1.5322 C   0  0  0  0  0  0  0  0  0  0  0  0 
   10.5739   -1.5726   -0.6797 C   0  0  0  0  0  0  0  0  0  0  0  0 
   11.1825   -2.8564   -1.2808 C   0  0  0  0  0  0  0  0  0  0  0  0 
   10.3216   -4.0931   -1.1422 C   0  0  0  0  0  0  0  0  0  0  0  0 
   10.1283   -4.9094   -2.0160 O   0  0  0  0  0  0  0  0  0  0  0  0 
    4.0396    1.7224    1.4913 H   0  0  0  0  0  0  0  0  0  0  0  0 
    5.4437    0.6748    1.7478 H   0  0  0  0  0  0  0  0  0  0  0  0 
    4.1946    0.2165    0.5809 H   0  0  0  0  0  0  0  0  0  0  0  0 
    5.9977    2.7042    0.3357 H   0  0  0  0  0  0  0  0  0  0  0  0 
    4.8102    2.2005   -0.8552 H   0  0  0  0  0  0  0  0  0  0  0  0 
    7.3168    0.6215   -0.0664 H   0  0  0  0  0  0  0  0  0  0  0  0 
    7.1707    1.6416   -1.4914 H   0  0  0  0  0  0  0  0  0  0  0  0 
    5.2569    0.1753   -2.2920 H   0  0  0  0  0  0  0  0  0  0  0  0 
    5.5653   -0.9155   -0.9528 H   0  0  0  0  0  0  0  0  0  0  0  0 
    7.5372   -0.2652   -3.2093 H   0  0  0  0  0  0  0  0  0  0  0  0 
    6.5251   -1.6895   -3.0906 H   0  0  0  0  0  0  0  0  0  0  0  0 
    8.4216   -2.6325   -2.2304 H   0  0  0  0  0  0  0  0  0  0  0  0 
    7.8059   -1.9922   -0.7186 H   0  0  0  0  0  0  0  0  0  0  0  0 
    9.2608    0.0791   -1.0768 H   0  0  0  0  0  0  0  0  0  0  0  0 
    9.9040   -0.6694   -2.5260 H   0  0  0  0  0  0  0  0  0  0  0  0 
   10.1721   -1.7973    0.3200 H   0  0  0  0  0  0  0  0  0  0  0  0 
   11.3889   -0.8558   -0.5206 H   0  0  0  0  0  0  0  0  0  0  0  0 
   12.1135   -3.0842   -0.7370 H   0  0  0  0  0  0  0  0  0  0  0  0 
   11.4467   -2.7306   -2.3368 H   0  0  0  0  0  0  0  0  0  0  0  0 
    9.8759   -4.2328   -0.1285 H   0  0  0  0  0  0  0  0  0  0  0  0 
  1 12  1  0  0  0  0 
  1 13  1  0  0  0  0 
  2 15  1  0  0  0  0 
  2  1  1  0  0  0  0 
  3  2  1  0  0  0  0 
  3 17  1  0  0  0  0 
  4 20  1  0  0  0  0 
  4  3  1  0  0  0  0 
  5  6  1  0  0  0  0 
  5  4  1  0  0  0  0 
  6  7  1  0  0  0  0 
  6 24  1  0  0  0  0 
  7 25  1  0  0  0  0 
  7  8  1  0  0  0  0 
  8 28  1  0  0  0  0 
  8 27  1  0  0  0  0 
  9 10  1  0  0  0  0 
  9 29  1  0  0  0  0 
  9  8  1  0  0  0  0 
 10 31  1  0  0  0  0 
 11 10  2  0  0  0  0 
 14  1  1  0  0  0  0 
 16  2  1  0  0  0  0 
 18  3  1  0  0  0  0 
 19  4  1  0  0  0  0 
 21  5  1  0  0  0  0 
 22  5  1  0  0  0  0 
 23  6  1  0  0  0  0 
 26  7  1  0  0  0  0 
 30  9  1  0  0  0  0 
M  END 
>  <HBA> 
1 
 
>  <HBD> 
0 
 
>  <TPSA> 
17.07 
 
>  <cid> 
8175 
 
>  <dipole> 
2.73 
 
>  <excitation_energy_1> 
4.246 
 
>  <excitation_energy_2> 
6.401 
 
>  <excitation_energy_3> 
6.73 
 
>  <excitation_energy_4> 
6.745 
 
>  <homo_energy> 
-6.765 
 
>  <homo_lumo_gap> 
6.218 
 
>  <logP> 
3.326 
 
>  <lumo_energy> 
-0.547 
 
>  <melting_point> 
2.51 
 
>  <molecular_refractivity> 
50.38 
 
>  <oscillator_strength_1> 
0.0001 
 
>  <oscillator_strength_2> 
0.0055 
 
>  <oscillator_strength_3> 
0.0143 
 
>  <oscillator_strength_4> 
0.0263 
 
>  <open_babel_can_smiles> 
CCCCCCCCCC=O 
 
>  <mulliken_charges> 
31 
1   -0.443431 
2   -0.249892 
3   -0.24965 
4   -0.256233 
5   -0.262833 
6   -0.271356 
7   -0.25895 
8   -0.278787 
9   -0.332729 
10   0.266797 
11   -0.392823 
12   0.142484 
13   0.139111 
14   0.147515 
15   0.129871 
16   0.130468 
17   0.129815 
18   0.12639 
19   0.127173 
20   0.13325 
21   0.129512 
22   0.134589 
23   0.152159 
24   0.127173 
25   0.142871 
26   0.134087 
27   0.1361 
28   0.14268 
29   0.163284 
30   0.164287 
31   0.097067 
 
>  <lowdin_charges> 
31 
1   -0.45039 
2   -0.275007 
3   -0.282174 
4   -0.279166 
5   -0.278432 
6   -0.286615 
7   -0.278541 
8   -0.275243 
9   -0.311154 
10   0.056798 
11   -0.222838 
12   0.151214 
13   0.146116 
14   0.148645 
15   0.141822 
16   0.139946 
17   0.138283 
18   0.140451 
19   0.14076 
20   0.140607 
21   0.140475 
22   0.147502 
23   0.151938 
24   0.137016 
25   0.146336 
26   0.14005 
27   0.140973 
28   0.151262 
29   0.169345 
30   0.160486 
31   0.109534 
 
$$$$ 
 
