PCCDB-ID:  29764 
public computational chemistry database (PCCDB) project, http://pccdb.org 
 
 27 26  0  0  0  0  0  0  0  0999 V2000 
    0.5171   -0.3801    0.0721 C   0  0  0  0  0  0  0  0  0  0  0  0 
    2.5002    4.0976   -2.2505 C   0  0  0  0  0  0  0  0  0  0  0  0 
    4.8052   -4.0504    0.3254 C   0  0  0  0  0  0  0  0  0  0  0  0 
    0.7914   -4.7220    2.0337 C   0  0  0  0  0  0  0  0  0  0  0  0 
    2.6208    1.0107   -0.3174 C   0  0  0  0  0  0  0  0  0  0  0  0 
    1.9729   -0.0483    0.2094 C   0  0  0  0  0  0  0  0  0  0  0  0 
    1.9999    2.0926   -1.1129 C   0  0  0  0  0  0  0  0  0  0  0  0 
    0.8337    2.2166   -1.4390 O   0  0  0  0  0  0  0  0  0  0  0  0 
    1.9397   -3.2969   -0.5603 O   0  0  0  0  0  0  0  0  0  0  0  0 
    2.9570    2.9909   -1.4605 O   0  0  0  0  0  0  0  0  0  0  0  0 
    3.7304   -3.8815    1.2736 O   0  0  0  0  0  0  0  0  0  0  0  0 
    1.4044   -3.4128    2.0182 O   0  0  0  0  0  0  0  0  0  0  0  0 
    2.4184   -3.0509    0.8236 P   0  0  0  0  0  0  0  0  0  0  0  0 
    2.9895   -1.0718    1.2948 S   0  0  0  0  0  0  0  0  0  0  0  0 
    0.4079   -1.3165   -0.4872 H   0  0  0  0  0  0  0  0  0  0  0  0 
   -0.0011    0.4183   -0.4587 H   0  0  0  0  0  0  0  0  0  0  0  0 
    0.0668   -0.5307    1.0596 H   0  0  0  0  0  0  0  0  0  0  0  0 
    3.3865    4.7015   -2.4471 H   0  0  0  0  0  0  0  0  0  0  0  0 
    1.7526    4.6795   -1.7039 H   0  0  0  0  0  0  0  0  0  0  0  0 
    2.0575    3.7463   -3.1865 H   0  0  0  0  0  0  0  0  0  0  0  0 
    5.4880   -4.7771    0.7680 H   0  0  0  0  0  0  0  0  0  0  0  0 
    5.3262   -3.1000    0.1721 H   0  0  0  0  0  0  0  0  0  0  0  0 
    4.4184   -4.4212   -0.6269 H   0  0  0  0  0  0  0  0  0  0  0  0 
    0.0402   -4.6911    2.8237 H   0  0  0  0  0  0  0  0  0  0  0  0 
    1.5419   -5.4842    2.2619 H   0  0  0  0  0  0  0  0  0  0  0  0 
    0.3175   -4.9342    1.0716 H   0  0  0  0  0  0  0  0  0  0  0  0 
    3.6895    1.1206   -0.1660 H   0  0  0  0  0  0  0  0  0  0  0  0 
  1  6  1  0  0  0  0 
  1 17  1  0  0  0  0 
  2 19  1  0  0  0  0 
  2 10  1  0  0  0  0 
  3 21  1  0  0  0  0 
  3 11  1  0  0  0  0 
  4 25  1  0  0  0  0 
  4 24  1  0  0  0  0 
  5 27  1  0  0  0  0 
  5  6  2  0  0  0  0 
  6 14  1  0  0  0  0 
  7  5  1  0  0  0  0 
  8  7  2  0  0  0  0 
  9 13  2  0  0  0  0 
 10  7  1  0  0  0  0 
 12  4  1  0  0  0  0 
 13 11  1  0  0  0  0 
 13 14  1  0  0  0  0 
 13 12  1  0  0  0  0 
 15  1  1  0  0  0  0 
 16  1  1  0  0  0  0 
 18  2  1  0  0  0  0 
 20  2  1  0  0  0  0 
 22  3  1  0  0  0  0 
 23  3  1  0  0  0  0 
 26  4  1  0  0  0  0 
M  END 
>  <HBA> 
6 
 
>  <HBD> 
0 
 
>  <TPSA> 
96.94 
 
>  <cid> 
29764 
 
>  <dipole> 
2.24 
 
>  <excitation_energy_1> 
4.612 
 
>  <excitation_energy_2> 
4.703 
 
>  <excitation_energy_3> 
5.488 
 
>  <excitation_energy_4> 
5.687 
 
>  <homo_energy> 
-6.694 
 
>  <homo_lumo_gap> 
5.323 
 
>  <logP> 
2.197 
 
>  <lumo_energy> 
-1.371 
 
>  <melting_point> 
4.93 
 
>  <molecular_refractivity> 
55.0 
 
>  <oscillator_strength_1> 
0.0224 
 
>  <oscillator_strength_2> 
0.2758 
 
>  <oscillator_strength_3> 
0.0052 
 
>  <oscillator_strength_4> 
0.1626 
 
>  <open_babel_can_smiles> 
COC(=O)/C=C(/SP(=O)(OC)OC)\C 
 
>  <mulliken_charges> 
27 
1   -0.540795 
2   -0.215655 
3   -0.228171 
4   -0.223544 
5   -0.203759 
6   -0.025928 
7   0.61819 
8   -0.495786 
9   -0.552855 
10   -0.459229 
11   -0.520147 
12   -0.505628 
13   1.050043 
14   -0.049747 
15   0.213759 
16   0.217836 
17   0.174642 
18   0.164056 
19   0.169917 
20   0.17115 
21   0.175564 
22   0.173706 
23   0.187293 
24   0.178454 
25   0.174362 
26   0.184271 
27   0.168003 
 
>  <lowdin_charges> 
27 
1   -0.463417 
2   -0.280837 
3   -0.273083 
4   -0.270993 
5   -0.219315 
6   -0.050292 
7   0.195774 
8   -0.271089 
9   -0.581486 
10   -0.191314 
11   -0.394318 
12   -0.385526 
13   0.954812 
14   0.024203 
15   0.190132 
16   0.192837 
17   0.170703 
18   0.160995 
19   0.160556 
20   0.159887 
21   0.166858 
22   0.16 
23   0.169065 
24   0.168156 
25   0.161545 
26   0.167075 
27   0.17907 
 
$$$$ 
 
