PCCDB-ID:  27107 
public computational chemistry database (PCCDB) project, http://pccdb.org 
 
 34 35  0  0  0  0  0  0  0  0999 V2000 
    1.4147    1.4820   -1.9716 C   0  0  0  0  0  0  0  0  0  0  0  0 
    6.1940    2.5703   -1.4507 C   0  0  0  0  0  0  0  0  0  0  0  0 
    8.3946    0.6678   -2.1756 C   0  0  0  0  0  0  0  0  0  0  0  0 
    2.9053    1.6425   -1.6836 C   0  0  0  0  0  0  0  0  0  0  0  0 
    9.0553   -4.3148   -0.3247 C   0  0  0  0  0  0  0  0  0  0  0  0 
    8.1422   -4.4784   -1.3688 C   0  0  0  0  0  0  0  0  0  0  0  0 
    9.2077   -3.0569    0.2595 C   0  0  0  0  0  0  0  0  0  0  0  0 
    7.3953   -3.4012   -1.8411 C   0  0  0  0  0  0  0  0  0  0  0  0 
    8.4560   -1.9712   -0.1887 C   0  0  0  0  0  0  0  0  0  0  0  0 
    6.0464    1.0916   -1.6317 C   0  0  0  0  0  0  0  0  0  0  0  0 
    7.5518   -2.1405   -1.2465 C   0  0  0  0  0  0  0  0  0  0  0  0 
    4.9895    0.3202   -2.0022 C   0  0  0  0  0  0  0  0  0  0  0  0 
    5.4379   -1.0766   -2.0481 C   0  0  0  0  0  0  0  0  0  0  0  0 
    3.6583    0.5589   -2.3033 N   0  0  0  0  0  0  0  0  0  0  0  0 
    7.1965    0.2760   -1.4080 N   0  0  0  0  0  0  0  0  0  0  0  0 
    6.7951   -1.0452   -1.7312 N   0  0  0  0  0  0  0  0  0  0  0  0 
    4.7487   -2.0714   -2.2612 O   0  0  0  0  0  0  0  0  0  0  0  0 
    0.8471    2.3106   -1.5361 H   0  0  0  0  0  0  0  0  0  0  0  0 
    1.0286    0.5494   -1.5423 H   0  0  0  0  0  0  0  0  0  0  0  0 
    1.2290    1.4641   -3.0507 H   0  0  0  0  0  0  0  0  0  0  0  0 
    5.2194    3.0481   -1.3396 H   0  0  0  0  0  0  0  0  0  0  0  0 
    6.6923    3.0467   -2.3063 H   0  0  0  0  0  0  0  0  0  0  0  0 
    6.7851    2.7965   -0.5553 H   0  0  0  0  0  0  0  0  0  0  0  0 
    8.6876    1.6741   -1.8694 H   0  0  0  0  0  0  0  0  0  0  0  0 
    8.2096    0.6500   -3.2592 H   0  0  0  0  0  0  0  0  0  0  0  0 
    9.2102   -0.0171   -1.9357 H   0  0  0  0  0  0  0  0  0  0  0  0 
    3.0764    1.6860   -0.5937 H   0  0  0  0  0  0  0  0  0  0  0  0 
    3.2483    2.5996   -2.0976 H   0  0  0  0  0  0  0  0  0  0  0  0 
    9.6390   -5.1591    0.0309 H   0  0  0  0  0  0  0  0  0  0  0  0 
    8.0119   -5.4539   -1.8297 H   0  0  0  0  0  0  0  0  0  0  0  0 
    9.9067   -2.9162    1.0798 H   0  0  0  0  0  0  0  0  0  0  0  0 
    6.6834   -3.5266   -2.6466 H   0  0  0  0  0  0  0  0  0  0  0  0 
    8.5470   -0.9991    0.2829 H   0  0  0  0  0  0  0  0  0  0  0  0 
    3.1607   -0.3292   -2.3163 H   0  0  0  0  0  0  0  0  0  0  0  0 
  1  4  1  0  0  0  0 
  1 19  1  0  0  0  0 
  1 18  1  0  0  0  0 
  2 21  1  0  0  0  0 
  2 23  1  0  0  0  0 
  3 26  1  0  0  0  0 
  3 24  1  0  0  0  0 
  3 15  1  0  0  0  0 
  4 27  1  0  0  0  0 
  5 29  1  0  0  0  0 
  5  7  2  0  0  0  0 
  6  5  1  0  0  0  0 
  7 31  1  0  0  0  0 
  8  6  2  0  0  0  0 
  8 11  1  0  0  0  0 
  9  7  1  0  0  0  0 
  9 33  1  0  0  0  0 
 10  2  1  0  0  0  0 
 10 15  1  0  0  0  0 
 11  9  2  0  0  0  0 
 12 10  2  0  0  0  0 
 13 12  1  0  0  0  0 
 13 16  1  0  0  0  0 
 14 12  1  0  0  0  0 
 14  4  1  0  0  0  0 
 16 15  1  0  0  0  0 
 16 11  1  0  0  0  0 
 17 13  2  0  0  0  0 
 20  1  1  0  0  0  0 
 22  2  1  0  0  0  0 
 25  3  1  0  0  0  0 
 28  4  1  0  0  0  0 
 30  6  1  0  0  0  0 
 32  8  1  0  0  0  0 
 34 14  1  0  0  0  0 
M  END 
>  <HBA> 
4 
 
>  <HBD> 
1 
 
>  <TPSA> 
38.96 
 
>  <cid> 
27107 
 
>  <dipole> 
3.65 
 
>  <excitation_energy_1> 
4.071 
 
>  <excitation_energy_2> 
4.432 
 
>  <excitation_energy_3> 
4.485 
 
>  <excitation_energy_4> 
4.694 
 
>  <homo_energy> 
-5.061 
 
>  <homo_lumo_gap> 
4.629 
 
>  <logP> 
1.989 
 
>  <lumo_energy> 
-0.433 
 
>  <melting_point> 
116.07 
 
>  <molecular_refractivity> 
70.37 
 
>  <oscillator_strength_1> 
0.0732 
 
>  <oscillator_strength_2> 
0.0001 
 
>  <oscillator_strength_3> 
0.0165 
 
>  <oscillator_strength_4> 
0.2442 
 
>  <open_babel_can_smiles> 
CCNc1c(C)n(n(c1=O)c1ccccc1)C 
 
>  <mulliken_charges> 
34 
1   -0.470423 
2   -0.533558 
3   -0.310575 
4   -0.111459 
5   -0.123832 
6   -0.146084 
7   -0.142469 
8   -0.14862 
9   -0.16209 
10   0.308157 
11   0.29173 
12   0.177989 
13   0.582817 
14   -0.680744 
15   -0.347647 
16   -0.432082 
17   -0.550782 
18   0.152794 
19   0.153939 
20   0.16402 
21   0.172603 
22   0.167863 
23   0.16878 
24   0.166266 
25   0.157473 
26   0.17675 
27   0.133815 
28   0.146114 
29   0.127124 
30   0.133277 
31   0.129412 
32   0.169151 
33   0.148515 
34   0.331778 
 
>  <lowdin_charges> 
34 
1   -0.448256 
2   -0.446798 
3   -0.356188 
4   -0.187495 
5   -0.168559 
6   -0.149337 
7   -0.152376 
8   -0.163642 
9   -0.1851 
10   -0.009166 
11   0.048868 
12   -0.029897 
13   0.138238 
14   -0.299011 
15   -0.063594 
16   -0.020096 
17   -0.321 
18   0.158778 
19   0.15279 
20   0.156628 
21   0.170377 
22   0.162359 
23   0.164708 
24   0.161078 
25   0.144385 
26   0.16692 
27   0.127136 
28   0.140969 
29   0.158298 
30   0.159538 
31   0.158098 
32   0.181305 
33   0.167836 
34   0.282206 
 
$$$$ 
 
