PCCDB-ID:  73266 
public computational chemistry database (PCCDB) project, http://pccdb.org 
 
 12 12  0  0  0  0  0  0  0  0999 V2000 
   -0.6331    1.2272   -0.0022 C   0  0  0  0  0  0  0  0  0  0  0  0 
   -1.4158   -0.0003   -0.0195 C   0  0  0  0  0  0  0  0  0  0  0  0 
   -0.6528   -1.2481   -0.0239 C   0  0  0  0  0  0  0  0  0  0  0  0 
    1.3475   -0.0276   -0.0080 C   0  0  0  0  0  0  0  0  0  0  0  0 
   -3.8648    0.0769   -0.0452 N   0  0  0  0  0  0  0  0  0  0  0  0 
    0.6467    1.2254    0.0045 N   0  0  0  0  0  0  0  0  0  0  0  0 
    0.6257   -1.2403   -0.0183 N   0  0  0  0  0  0  0  0  0  0  0  0 
   -2.7250    0.0336   -0.0336 N   0  0  0  0  0  0  0  0  0  0  0  0 
   -1.2792   -2.4421   -0.0338 O   0  0  0  0  0  0  0  0  0  0  0  0 
    2.5576   -0.0271   -0.0092 O   0  0  0  0  0  0  0  0  0  0  0  0 
   -1.1669    2.1788    0.0051 H   0  0  0  0  0  0  0  0  0  0  0  0 
   -2.2447   -2.3421   -0.0370 H   0  0  0  0  0  0  0  0  0  0  0  0 
  1  6  1  0  0  0  0 
  1 11  1  0  0  0  0 
  2  1  2  0  0  0  0 
  3  2  1  0  0  0  0 
  3  7  2  0  0  0  0 
  4  6  2  0  0  0  0 
  5  8  1  0  0  0  0 
  7  4  1  0  0  0  0 
  8  2  1  0  0  0  0 
  9  3  1  0  0  0  0 
 10  4  2  0  0  0  0 
 12  9  1  0  0  0  0 
M  RAD  2   5   3   8   2 
M  END 
>  <HBA> 
4 
 
>  <HBD> 
1 
 
>  <TPSA> 
96.96 
 
>  <cid> 
73266 
 
>  <dipole> 
7.7 
 
>  <excitation_energy_1> 
2.686 
 
>  <excitation_energy_2> 
3.193 
 
>  <excitation_energy_3> 
3.252 
 
>  <excitation_energy_4> 
3.502 
 
>  <homo_energy> 
-7.211 
 
>  <homo_lumo_gap> 
3.867 
 
>  <logP> 
0.398 
 
>  <lumo_energy> 
-3.344 
 
>  <melting_point> 
152.87 
 
>  <molecular_refractivity> 
29.73 
 
>  <oscillator_strength_1> 
0.0 
 
>  <oscillator_strength_2> 
0.0 
 
>  <oscillator_strength_3> 
0.0002 
 
>  <oscillator_strength_4> 
0.0014 
 
>  <open_babel_can_smiles> 
[N][N]C1=CN=[C](=O)N=C1O 
 
>  <mulliken_charges> 
12 
1   0.108092 
2   0.179317 
3   0.561924 
4   0.634022 
5   -0.181549 
6   -0.41025 
7   -0.478168 
8   -0.019361 
9   -0.565324 
10   -0.424893 
11   0.17867 
12   0.41752 
 
>  <lowdin_charges> 
12 
1   -0.050253 
2   -0.125572 
3   0.155787 
4   0.166701 
5   -0.00012 
6   -0.14378 
7   -0.170336 
8   0.154904 
9   -0.318974 
10   -0.204545 
11   0.175202 
12   0.360984 
 
$$$$ 
 
