PCCDB-ID:  7129 
public computational chemistry database (PCCDB) project, http://pccdb.org 
 
 25 26  0  0  0  0  0  0  0  0999 V2000 
    1.4982    0.4676   -1.2112 C   0  0  0  0  0  0  0  0  0  0  0  0 
    3.0060    0.6507   -1.2347 C   0  0  0  0  0  0  0  0  0  0  0  0 
    9.6427   -2.6836   -1.7093 C   0  0  0  0  0  0  0  0  0  0  0  0 
    8.7517   -3.7849   -1.7807 C   0  0  0  0  0  0  0  0  0  0  0  0 
    9.1495   -1.4054   -1.5847 C   0  0  0  0  0  0  0  0  0  0  0  0 
    7.3913   -3.5888   -1.7258 C   0  0  0  0  0  0  0  0  0  0  0  0 
    7.2023    0.1342   -1.3984 C   0  0  0  0  0  0  0  0  0  0  0  0 
    5.8413    0.3437   -1.3415 C   0  0  0  0  0  0  0  0  0  0  0  0 
    5.4538   -2.0445   -1.5365 C   0  0  0  0  0  0  0  0  0  0  0  0 
    7.7497   -1.1665   -1.5262 C   0  0  0  0  0  0  0  0  0  0  0  0 
    6.8468   -2.2794   -1.5973 C   0  0  0  0  0  0  0  0  0  0  0  0 
    4.9517   -0.7613   -1.4111 C   0  0  0  0  0  0  0  0  0  0  0  0 
    3.5912   -0.6441   -1.3611 O   0  0  0  0  0  0  0  0  0  0  0  0 
    1.0021    1.4391   -1.1117 H   0  0  0  0  0  0  0  0  0  0  0  0 
    1.2002   -0.1636   -0.3682 H   0  0  0  0  0  0  0  0  0  0  0  0 
    1.1538   -0.0062   -2.1357 H   0  0  0  0  0  0  0  0  0  0  0  0 
    3.3554    1.1334   -0.3106 H   0  0  0  0  0  0  0  0  0  0  0  0 
    3.3083    1.2845   -2.0809 H   0  0  0  0  0  0  0  0  0  0  0  0 
   10.7148   -2.8549   -1.7523 H   0  0  0  0  0  0  0  0  0  0  0  0 
    9.1511   -4.7910   -1.8792 H   0  0  0  0  0  0  0  0  0  0  0  0 
    9.8265   -0.5556   -1.5291 H   0  0  0  0  0  0  0  0  0  0  0  0 
    6.7098   -4.4344   -1.7806 H   0  0  0  0  0  0  0  0  0  0  0  0 
    7.8783    0.9845   -1.3440 H   0  0  0  0  0  0  0  0  0  0  0  0 
    5.4591    1.3530   -1.2428 H   0  0  0  0  0  0  0  0  0  0  0  0 
    4.7566   -2.8758   -1.5891 H   0  0  0  0  0  0  0  0  0  0  0  0 
  1 14  1  0  0  0  0 
  1 15  1  0  0  0  0 
  2  1  1  0  0  0  0 
  2 17  1  0  0  0  0 
  3  5  2  0  0  0  0 
  4  6  2  0  0  0  0 
  4  3  1  0  0  0  0 
  5 21  1  0  0  0  0 
  5 10  1  0  0  0  0 
  6 11  1  0  0  0  0 
  7 23  1  0  0  0  0 
  7  8  1  0  0  0  0 
  8 24  1  0  0  0  0 
  9 12  1  0  0  0  0 
 10  7  2  0  0  0  0 
 11  9  2  0  0  0  0 
 11 10  1  0  0  0  0 
 12 13  1  0  0  0  0 
 12  8  2  0  0  0  0 
 13  2  1  0  0  0  0 
 16  1  1  0  0  0  0 
 18  2  1  0  0  0  0 
 19  3  1  0  0  0  0 
 20  4  1  0  0  0  0 
 22  6  1  0  0  0  0 
 25  9  1  0  0  0  0 
M  END 
>  <HBA> 
1 
 
>  <HBD> 
0 
 
>  <TPSA> 
9.23 
 
>  <cid> 
7129 
 
>  <dipole> 
1.64 
 
>  <excitation_energy_1> 
4.0 
 
>  <excitation_energy_2> 
4.448 
 
>  <excitation_energy_3> 
5.122 
 
>  <excitation_energy_4> 
5.259 
 
>  <homo_energy> 
-5.388 
 
>  <homo_lumo_gap> 
4.514 
 
>  <logP> 
3.239 
 
>  <lumo_energy> 
-0.873 
 
>  <melting_point> 
53.09 
 
>  <molecular_refractivity> 
55.25 
 
>  <oscillator_strength_1> 
0.0587 
 
>  <oscillator_strength_2> 
0.0083 
 
>  <oscillator_strength_3> 
0.0012 
 
>  <oscillator_strength_4> 
0.0287 
 
>  <open_babel_can_smiles> 
CCOc1ccc2c(c1)cccc2 
 
>  <mulliken_charges> 
25 
1   -0.456726 
2   -0.028088 
3   -0.139727 
4   -0.136397 
5   -0.190179 
6   -0.191735 
7   -0.205379 
8   -0.193487 
9   -0.265602 
10   0.139044 
11   0.142254 
12   0.386487 
13   -0.522029 
14   0.147856 
15   0.164125 
16   0.164081 
17   0.140371 
18   0.140383 
19   0.126049 
20   0.127268 
21   0.125986 
22   0.127848 
23   0.130677 
24   0.133694 
25   0.133228 
 
>  <lowdin_charges> 
25 
1   -0.447969 
2   -0.125058 
3   -0.165672 
4   -0.156059 
5   -0.155794 
6   -0.163084 
7   -0.148416 
8   -0.204696 
9   -0.194619 
10   -0.012969 
11   0.00887 
12   0.102612 
13   -0.205173 
14   0.156588 
15   0.160988 
16   0.160538 
17   0.137993 
18   0.138524 
19   0.155144 
20   0.156707 
21   0.156519 
22   0.157709 
23   0.158746 
24   0.162785 
25   0.165786 
 
$$$$ 
 
