PCCDB-ID:  56048 
public computational chemistry database (PCCDB) project, http://pccdb.org 
 
 23 23  0  0  0  0  0  0  0  0999 V2000 
    2.6850   -0.7492   -0.2666 C   0  0  0  0  0  0  0  0  0  0  0  0 
    3.9680    6.3668    4.3253 C   0  0  0  0  0  0  0  0  0  0  0  0 
    4.1280   -0.2701   -0.3862 C   0  0  0  0  0  0  0  0  0  0  0  0 
    4.7726    4.5403    2.6180 C   0  0  0  0  0  0  0  0  0  0  0  0 
    4.0750    5.0281    3.6816 C   0  0  0  0  0  0  0  0  0  0  0  0 
    4.3934    3.1719    2.5629 C   0  0  0  0  0  0  0  0  0  0  0  0 
    4.8779    2.1600    1.5736 C   0  0  0  0  0  0  0  0  0  0  0  0 
    4.7769   -0.1665    0.9387 N   0  0  0  0  0  0  0  0  0  0  0  0 
    4.2927    0.9339    1.6744 N   0  0  0  0  0  0  0  0  0  0  0  0 
    3.5409    2.8554    3.5149 N   0  0  0  0  0  0  0  0  0  0  0  0 
    5.7460    2.4350    0.7499 O   0  0  0  0  0  0  0  0  0  0  0  0 
    3.3338    4.0302    4.2284 O   0  0  0  0  0  0  0  0  0  0  0  0 
    2.2369   -0.8652   -1.2597 H   0  0  0  0  0  0  0  0  0  0  0  0 
    2.0764   -0.0287    0.2911 H   0  0  0  0  0  0  0  0  0  0  0  0 
    2.6386   -1.7128    0.2519 H   0  0  0  0  0  0  0  0  0  0  0  0 
    4.6483    7.0709    3.8404 H   0  0  0  0  0  0  0  0  0  0  0  0 
    4.2221    6.3109    5.3896 H   0  0  0  0  0  0  0  0  0  0  0  0 
    2.9476    6.7595    4.2482 H   0  0  0  0  0  0  0  0  0  0  0  0 
    4.1754    0.6831   -0.9325 H   0  0  0  0  0  0  0  0  0  0  0  0 
    4.7214   -1.0031   -0.9462 H   0  0  0  0  0  0  0  0  0  0  0  0 
    5.4563    5.0526    1.9597 H   0  0  0  0  0  0  0  0  0  0  0  0 
    5.7698    0.0193    0.7916 H   0  0  0  0  0  0  0  0  0  0  0  0 
    3.7332    0.7170    2.4897 H   0  0  0  0  0  0  0  0  0  0  0  0 
  1 15  1  0  0  0  0 
  1 14  1  0  0  0  0 
  2 17  1  0  0  0  0 
  3  1  1  0  0  0  0 
  3  8  1  0  0  0  0 
  4  5  2  0  0  0  0 
  5 12  1  0  0  0  0 
  5  2  1  0  0  0  0 
  6  4  1  0  0  0  0 
  6 10  2  0  0  0  0 
  7  9  1  0  0  0  0 
  7  6  1  0  0  0  0 
  8  9  1  0  0  0  0 
  9 23  1  0  0  0  0 
 10 12  1  0  0  0  0 
 11  7  2  0  0  0  0 
 13  1  1  0  0  0  0 
 16  2  1  0  0  0  0 
 18  2  1  0  0  0  0 
 19  3  1  0  0  0  0 
 20  3  1  0  0  0  0 
 21  4  1  0  0  0  0 
 22  8  1  0  0  0  0 
M  END 
>  <HBA> 
5 
 
>  <HBD> 
2 
 
>  <TPSA> 
67.16 
 
>  <cid> 
56048 
 
>  <dipole> 
2.11 
 
>  <excitation_energy_1> 
4.472 
 
>  <excitation_energy_2> 
4.781 
 
>  <excitation_energy_3> 
5.415 
 
>  <excitation_energy_4> 
5.714 
 
>  <homo_energy> 
-6.43 
 
>  <homo_lumo_gap> 
5.23 
 
>  <logP> 
1.019 
 
>  <lumo_energy> 
-1.2 
 
>  <melting_point> 
111.48 
 
>  <molecular_refractivity> 
42.07 
 
>  <oscillator_strength_1> 
0.0272 
 
>  <oscillator_strength_2> 
0.0104 
 
>  <oscillator_strength_3> 
0.0684 
 
>  <oscillator_strength_4> 
0.013 
 
>  <open_babel_can_smiles> 
CCNNC(=O)c1noc(c1)C 
 
>  <mulliken_charges> 
23 
1   -0.441971 
2   -0.528844 
3   -0.116306 
4   -0.279578 
5   0.418184 
6   0.269599 
7   0.587555 
8   -0.417294 
9   -0.503769 
10   -0.252374 
11   -0.531514 
12   -0.360675 
13   0.145873 
14   0.15257 
15   0.153886 
16   0.179393 
17   0.187831 
18   0.187849 
19   0.149621 
20   0.14166 
21   0.171653 
22   0.325035 
23   0.361616 
 
>  <lowdin_charges> 
23 
1   -0.452316 
2   -0.440025 
3   -0.204399 
4   -0.226314 
5   0.100006 
6   -0.008504 
7   0.146429 
8   -0.279328 
9   -0.208567 
10   -0.08722 
11   -0.307368 
12   -0.065454 
13   0.153483 
14   0.153078 
15   0.153548 
16   0.177068 
17   0.176579 
18   0.176903 
19   0.139189 
20   0.148891 
21   0.191667 
22   0.264668 
23   0.297986 
 
$$$$ 
 
