PCCDB-ID:  55844 
public computational chemistry database (PCCDB) project, http://pccdb.org 
 
 30 31  0  0  0  0  0  0  0  0999 V2000 
    5.3601    0.5317   -1.7706 C   0  0  0  0  0  0  0  0  0  0  0  0 
    4.0273   -2.3373   -2.6760 C   0  0  0  0  0  0  0  0  0  0  0  0 
   -0.3487    2.6725    0.9448 C   0  0  0  0  0  0  0  0  0  0  0  0 
    1.0803    0.8121    1.4973 C   0  0  0  0  0  0  0  0  0  0  0  0 
   -1.3666    2.1304    1.7182 C   0  0  0  0  0  0  0  0  0  0  0  0 
    0.0769    0.2744    2.2863 C   0  0  0  0  0  0  0  0  0  0  0  0 
    3.9330    0.0936   -1.6821 C   0  0  0  0  0  0  0  0  0  0  0  0 
    3.3467   -1.1457   -2.0761 C   0  0  0  0  0  0  0  0  0  0  0  0 
    0.8909    2.0230    0.8101 C   0  0  0  0  0  0  0  0  0  0  0  0 
   -1.1704    0.9193    2.4061 C   0  0  0  0  0  0  0  0  0  0  0  0 
    1.9777    2.6396    0.0111 C   0  0  0  0  0  0  0  0  0  0  0  0 
    2.8664    0.8159   -1.2021 C   0  0  0  0  0  0  0  0  0  0  0  0 
   -2.1601    0.3979    3.2269 N   0  0  0  0  0  0  0  0  0  0  0  0 
    2.8609    2.1029   -0.7480 N   0  0  0  0  0  0  0  0  0  0  0  0 
    2.0452   -1.1716   -1.8727 N   0  0  0  0  0  0  0  0  0  0  0  0 
    2.0744    3.9947    0.1216 O   0  0  0  0  0  0  0  0  0  0  0  0 
    1.7268    0.0773   -1.3121 O   0  0  0  0  0  0  0  0  0  0  0  0 
    6.0049   -0.0098   -1.0650 H   0  0  0  0  0  0  0  0  0  0  0  0 
    5.4362    1.5985   -1.5409 H   0  0  0  0  0  0  0  0  0  0  0  0 
    5.7720    0.3664   -2.7741 H   0  0  0  0  0  0  0  0  0  0  0  0 
    4.5467   -2.0688   -3.6037 H   0  0  0  0  0  0  0  0  0  0  0  0 
    3.2934   -3.1157   -2.9002 H   0  0  0  0  0  0  0  0  0  0  0  0 
    4.7771   -2.7512   -1.9908 H   0  0  0  0  0  0  0  0  0  0  0  0 
   -0.5371    3.5942    0.3992 H   0  0  0  0  0  0  0  0  0  0  0  0 
    2.0296    0.2930    1.4191 H   0  0  0  0  0  0  0  0  0  0  0  0 
   -2.3238    2.6412    1.7904 H   0  0  0  0  0  0  0  0  0  0  0  0 
    0.2499   -0.6568    2.8200 H   0  0  0  0  0  0  0  0  0  0  0  0 
   -3.1060    0.6974    3.0286 H   0  0  0  0  0  0  0  0  0  0  0  0 
   -2.1012   -0.5942    3.4170 H   0  0  0  0  0  0  0  0  0  0  0  0 
    1.5332    4.2775    0.8767 H   0  0  0  0  0  0  0  0  0  0  0  0 
  1  7  1  0  0  0  0 
  1 19  1  0  0  0  0 
  1 18  1  0  0  0  0 
  2  8  1  0  0  0  0 
  2 23  1  0  0  0  0 
  3  5  1  0  0  0  0 
  4  6  2  0  0  0  0 
  5 26  1  0  0  0  0 
  5 10  2  0  0  0  0 
  6 10  1  0  0  0  0 
  6 27  1  0  0  0  0 
  7 12  2  0  0  0  0 
  8 15  2  0  0  0  0 
  8  7  1  0  0  0  0 
  9  3  2  0  0  0  0 
  9  4  1  0  0  0  0 
 10 13  1  0  0  0  0 
 11 16  1  0  0  0  0 
 11  9  1  0  0  0  0 
 12 14  1  0  0  0  0 
 13 29  1  0  0  0  0 
 14 11  2  0  0  0  0 
 15 17  1  0  0  0  0 
 16 30  1  0  0  0  0 
 17 12  1  0  0  0  0 
 20  1  1  0  0  0  0 
 21  2  1  0  0  0  0 
 22  2  1  0  0  0  0 
 24  3  1  0  0  0  0 
 25  4  1  0  0  0  0 
 28 13  1  0  0  0  0 
M  END 
>  <HBA> 
5 
 
>  <HBD> 
2 
 
>  <TPSA> 
81.15 
 
>  <cid> 
55844 
 
>  <dipole> 
4.54 
 
>  <excitation_energy_1> 
3.784 
 
>  <excitation_energy_2> 
4.298 
 
>  <excitation_energy_3> 
4.309 
 
>  <excitation_energy_4> 
4.725 
 
>  <homo_energy> 
-5.461 
 
>  <homo_lumo_gap> 
4.321 
 
>  <logP> 
2.78 
 
>  <lumo_energy> 
-1.14 
 
>  <melting_point> 
174.56 
 
>  <molecular_refractivity> 
65.05 
 
>  <oscillator_strength_1> 
0.3124 
 
>  <oscillator_strength_2> 
0.148 
 
>  <oscillator_strength_3> 
0.0457 
 
>  <oscillator_strength_4> 
0.0058 
 
>  <open_babel_can_smiles> 
Nc1ccc(cc1)/C(=N\c1onc(c1C)C)/O 
 
>  <mulliken_charges> 
30 
1   -0.538307 
2   -0.524503 
3   -0.202307 
4   -0.141175 
5   -0.173827 
6   -0.177449 
7   0.01808 
8   0.296253 
9   0.077881 
10   0.331929 
11   0.412295 
12   0.51039 
13   -0.789754 
14   -0.510987 
15   -0.241033 
16   -0.568982 
17   -0.401505 
18   0.153341 
19   0.182463 
20   0.153671 
21   0.164824 
22   0.17727 
23   0.162228 
24   0.145841 
25   0.156484 
26   0.127576 
27   0.131261 
28   0.329192 
29   0.33082 
30   0.40803 
 
>  <lowdin_charges> 
30 
1   -0.435753 
2   -0.443076 
3   -0.151218 
4   -0.117357 
5   -0.19893 
6   -0.19115 
7   -0.091859 
8   0.011239 
9   -0.075489 
10   0.076314 
11   0.162931 
12   0.104338 
13   -0.470398 
14   -0.179764 
15   -0.10448 
16   -0.350592 
17   -0.100787 
18   0.156382 
19   0.172097 
20   0.155775 
21   0.164063 
22   0.172981 
23   0.163765 
24   0.163075 
25   0.172249 
26   0.157753 
27   0.159788 
28   0.280515 
29   0.280444 
30   0.357144 
 
$$$$ 
 
