PCCDB-ID:  43087 
public computational chemistry database (PCCDB) project, http://pccdb.org 
 
 23 24  0  0  0  0  0  0  0  0999 V2000 
    0.9601   -0.1795   -0.1930 C   0  0  0  0  0  0  0  0  0  0  0  0 
    6.6575   -2.3852   -0.2004 C   0  0  0  0  0  0  0  0  0  0  0  0 
    7.2375   -1.2771    0.6622 C   0  0  0  0  0  0  0  0  0  0  0  0 
    3.2096   -1.2559   -0.0773 C   0  0  0  0  0  0  0  0  0  0  0  0 
    4.5923    1.1326    0.1770 C   0  0  0  0  0  0  0  0  0  0  0  0 
    2.4613   -0.0750   -0.0627 C   0  0  0  0  0  0  0  0  0  0  0  0 
    3.1994    1.1244    0.0575 C   0  0  0  0  0  0  0  0  0  0  0  0 
    4.6003   -1.2690    0.0265 C   0  0  0  0  0  0  0  0  0  0  0  0 
    5.3014   -0.0572    0.1694 C   0  0  0  0  0  0  0  0  0  0  0  0 
    2.5518    2.4405    0.0771 N   0  0  0  0  0  0  0  0  0  0  0  0 
    3.2743    3.4392    0.1174 O   0  0  0  0  0  0  0  0  0  0  0  0 
    1.3193    2.4916    0.0542 O   0  0  0  0  0  0  0  0  0  0  0  0 
    5.2398   -2.4731   -0.0101 O   0  0  0  0  0  0  0  0  0  0  0  0 
    6.6663   -0.0198    0.2959 O   0  0  0  0  0  0  0  0  0  0  0  0 
    0.6757   -1.2302   -0.3052 H   0  0  0  0  0  0  0  0  0  0  0  0 
    0.5877    0.3811   -1.0549 H   0  0  0  0  0  0  0  0  0  0  0  0 
    0.4491    0.2325    0.6815 H   0  0  0  0  0  0  0  0  0  0  0  0 
    7.0621   -3.3621    0.0754 H   0  0  0  0  0  0  0  0  0  0  0  0 
    6.8715   -2.1923   -1.2596 H   0  0  0  0  0  0  0  0  0  0  0  0 
    8.3154   -1.1807    0.5115 H   0  0  0  0  0  0  0  0  0  0  0  0 
    7.0395   -1.4807    1.7234 H   0  0  0  0  0  0  0  0  0  0  0  0 
    2.7070   -2.2121   -0.1844 H   0  0  0  0  0  0  0  0  0  0  0  0 
    5.1168    2.0735    0.2785 H   0  0  0  0  0  0  0  0  0  0  0  0 
  1  6  1  0  0  0  0 
  1 17  1  0  0  0  0 
  2 13  1  0  0  0  0 
  2 18  1  0  0  0  0 
  2  3  1  0  0  0  0 
  3 21  1  0  0  0  0 
  4  6  2  0  0  0  0 
  4  8  1  0  0  0  0 
  5 23  1  0  0  0  0 
  6  7  1  0  0  0  0 
  7 10  1  0  0  0  0 
  7  5  2  0  0  0  0 
  8  9  2  0  0  0  0 
  9  5  1  0  0  0  0 
  9 14  1  0  0  0  0 
 10 11  2  0  0  0  0 
 12 10  2  0  0  0  0 
 13  8  1  0  0  0  0 
 14  3  1  0  0  0  0 
 15  1  1  0  0  0  0 
 16  1  1  0  0  0  0 
 19  2  1  0  0  0  0 
 20  3  1  0  0  0  0 
 22  4  1  0  0  0  0 
M  END 
>  <HBA> 
2 
 
>  <HBD> 
0 
 
>  <TPSA> 
64.28 
 
>  <cid> 
43087 
 
>  <dipole> 
6.35 
 
>  <excitation_energy_1> 
3.629 
 
>  <excitation_energy_2> 
3.716 
 
>  <excitation_energy_3> 
4.192 
 
>  <excitation_energy_4> 
4.327 
 
>  <homo_energy> 
-6.324 
 
>  <homo_lumo_gap> 
4.25 
 
>  <logP> 
2.198 
 
>  <lumo_energy> 
-2.074 
 
>  <melting_point> 
81.75 
 
>  <molecular_refractivity> 
51.1 
 
>  <oscillator_strength_1> 
0.0814 
 
>  <oscillator_strength_2> 
0.0029 
 
>  <oscillator_strength_3> 
0.174 
 
>  <oscillator_strength_4> 
0.0031 
 
>  <open_babel_can_smiles> 
O=N(=O)c1cc2OCCOc2cc1C 
 
>  <mulliken_charges> 
23 
1   -0.501389 
2   -0.064426 
3   -0.066851 
4   -0.276841 
5   -0.24043 
6   0.169857 
7   0.217313 
8   0.371354 
9   0.344711 
10   0.370595 
11   -0.403049 
12   -0.411395 
13   -0.516727 
14   -0.520451 
15   0.146362 
16   0.181302 
17   0.183321 
18   0.168768 
19   0.169323 
20   0.169461 
21   0.165701 
22   0.149429 
23   0.19406 
 
>  <lowdin_charges> 
23 
1   -0.436849 
2   -0.136385 
3   -0.135711 
4   -0.184035 
5   -0.156902 
6   0.020041 
7   -0.017084 
8   0.079852 
9   0.060017 
10   0.305911 
11   -0.2595 
12   -0.249161 
13   -0.193291 
14   -0.202393 
15   0.150414 
16   0.174221 
17   0.175119 
18   0.166169 
19   0.153048 
20   0.165 
21   0.150446 
22   0.172991 
23   0.198082 
 
$$$$ 
 
