PCCDB-ID:  23636 
public computational chemistry database (PCCDB) project, http://pccdb.org 
 
 30 31  0  0  0  0  0  0  0  0999 V2000 
    2.6741   -1.6700    0.7774 C   0  0  0  0  0  0  0  0  0  0  0  0 
    2.7938    0.7637    1.4003 C   0  0  0  0  0  0  0  0  0  0  0  0 
    7.6842   -0.3746   -0.1705 C   0  0  0  0  0  0  0  0  0  0  0  0 
    7.0547    0.8612   -0.0153 C   0  0  0  0  0  0  0  0  0  0  0  0 
    6.9388   -1.4722   -0.6032 C   0  0  0  0  0  0  0  0  0  0  0  0 
    5.6926    0.9945   -0.2885 C   0  0  0  0  0  0  0  0  0  0  0  0 
    5.5769   -1.3336   -0.8748 C   0  0  0  0  0  0  0  0  0  0  0  0 
    2.9952    1.3462   -1.7418 C   0  0  0  0  0  0  0  0  0  0  0  0 
    2.8940   -0.6917   -2.2633 C   0  0  0  0  0  0  0  0  0  0  0  0 
    2.5494   -0.2306    0.2543 C   0  0  0  0  0  0  0  0  0  0  0  0 
    4.9271   -0.0995   -0.7197 C   0  0  0  0  0  0  0  0  0  0  0  0 
    3.4436    0.0452   -0.9972 C   0  0  0  0  0  0  0  0  0  0  0  0 
    2.1303    0.5256   -2.6195 N   0  0  0  0  0  0  0  0  0  0  0  0 
    1.9365   -1.8492    1.5683 H   0  0  0  0  0  0  0  0  0  0  0  0 
    3.6675   -1.8562    1.2007 H   0  0  0  0  0  0  0  0  0  0  0  0 
    2.4982   -2.4129   -0.0087 H   0  0  0  0  0  0  0  0  0  0  0  0 
    2.0735    0.5918    2.2087 H   0  0  0  0  0  0  0  0  0  0  0  0 
    2.6806    1.8046    1.0769 H   0  0  0  0  0  0  0  0  0  0  0  0 
    3.7988    0.6489    1.8216 H   0  0  0  0  0  0  0  0  0  0  0  0 
    8.7454   -0.4801    0.0383 H   0  0  0  0  0  0  0  0  0  0  0  0 
    7.6244    1.7258    0.3158 H   0  0  0  0  0  0  0  0  0  0  0  0 
    7.4180   -2.4391   -0.7347 H   0  0  0  0  0  0  0  0  0  0  0  0 
    5.2193    1.9660   -0.1706 H   0  0  0  0  0  0  0  0  0  0  0  0 
    5.0126   -2.1972   -1.2178 H   0  0  0  0  0  0  0  0  0  0  0  0 
    3.8376    1.8318   -2.2559 H   0  0  0  0  0  0  0  0  0  0  0  0 
    2.4528    2.1037   -1.1625 H   0  0  0  0  0  0  0  0  0  0  0  0 
    2.2704   -1.5804   -2.1059 H   0  0  0  0  0  0  0  0  0  0  0  0 
    3.7002   -0.9469   -2.9667 H   0  0  0  0  0  0  0  0  0  0  0  0 
    1.5182   -0.0890   -0.0984 H   0  0  0  0  0  0  0  0  0  0  0  0 
    2.1651    0.7758   -3.6056 H   0  0  0  0  0  0  0  0  0  0  0  0 
  1 15  1  0  0  0  0 
  1 14  1  0  0  0  0 
  2 19  1  0  0  0  0 
  2 17  1  0  0  0  0 
  3  4  1  0  0  0  0 
  3 20  1  0  0  0  0 
  4 21  1  0  0  0  0 
  5  3  2  0  0  0  0 
  6 23  1  0  0  0  0 
  6  4  2  0  0  0  0 
  7 11  2  0  0  0  0 
  7  5  1  0  0  0  0 
  8 26  1  0  0  0  0 
  8 12  1  0  0  0  0 
  9 27  1  0  0  0  0 
  9 12  1  0  0  0  0 
 10  1  1  0  0  0  0 
 10  2  1  0  0  0  0 
 11  6  1  0  0  0  0 
 12 11  1  0  0  0  0 
 12 10  1  0  0  0  0 
 13  9  1  0  0  0  0 
 13  8  1  0  0  0  0 
 16  1  1  0  0  0  0 
 18  2  1  0  0  0  0 
 22  5  1  0  0  0  0 
 24  7  1  0  0  0  0 
 25  8  1  0  0  0  0 
 28  9  1  0  0  0  0 
 29 10  1  0  0  0  0 
 30 13  1  0  0  0  0 
M  END 
>  <HBA> 
1 
 
>  <HBD> 
1 
 
>  <TPSA> 
12.03 
 
>  <cid> 
23636 
 
>  <dipole> 
1.07 
 
>  <excitation_energy_1> 
5.134 
 
>  <excitation_energy_2> 
5.184 
 
>  <excitation_energy_3> 
5.333 
 
>  <excitation_energy_4> 
5.47 
 
>  <homo_energy> 
-5.908 
 
>  <homo_lumo_gap> 
5.951 
 
>  <logP> 
2.512 
 
>  <lumo_energy> 
0.044 
 
>  <melting_point> 
60.53 
 
>  <molecular_refractivity> 
59.93 
 
>  <oscillator_strength_1> 
0.0012 
 
>  <oscillator_strength_2> 
0.0155 
 
>  <oscillator_strength_3> 
0.0 
 
>  <oscillator_strength_4> 
0.0004 
 
>  <open_babel_can_smiles> 
CC(C1(CNC1)c1ccccc1)C 
 
>  <mulliken_charges> 
30 
1   -0.457229 
2   -0.457182 
3   -0.130181 
4   -0.132348 
5   -0.132336 
6   -0.178755 
7   -0.178503 
8   -0.142914 
9   -0.142787 
10   -0.071428 
11   0.132385 
12   -0.01668 
13   -0.564621 
14   0.141745 
15   0.152321 
16   0.138768 
17   0.141633 
18   0.13883 
19   0.152388 
20   0.127429 
21   0.128123 
22   0.128095 
23   0.128803 
24   0.128697 
25   0.126997 
26   0.137687 
27   0.137682 
28   0.126993 
29   0.144012 
30   0.292374 
 
>  <lowdin_charges> 
30 
1   -0.450488 
2   -0.44816 
3   -0.159744 
4   -0.157761 
5   -0.156641 
6   -0.16804 
7   -0.169121 
8   -0.209185 
9   -0.20725 
10   -0.114459 
11   -0.002892 
12   -0.000851 
13   -0.376302 
14   0.150939 
15   0.151678 
16   0.146243 
17   0.150847 
18   0.144389 
19   0.151549 
20   0.155168 
21   0.157636 
22   0.156604 
23   0.156551 
24   0.157612 
25   0.133436 
26   0.139508 
27   0.138544 
28   0.133182 
29   0.149026 
30   0.24798 
 
$$$$ 
 
