PCCDB-ID:  38673 
public computational chemistry database (PCCDB) project, http://pccdb.org 
 
 25 24  0  0  0  0  0  0  0  0999 V2000 
    0.1053   -0.4293    3.6923 C   0  0  0  0  0  0  0  0  0  0  0  0 
   -3.9905    2.7727    4.1489 C   0  0  0  0  0  0  0  0  0  0  0  0 
   -1.2039   -0.2389    2.9231 C   0  0  0  0  0  0  0  0  0  0  0  0 
   -4.4118    1.8173    3.0204 C   0  0  0  0  0  0  0  0  0  0  0  0 
   -3.4949    1.2644    6.0276 C   0  0  0  0  0  0  0  0  0  0  0  0 
    0.1481    0.4051    4.9076 N   0  0  0  0  0  0  0  0  0  0  0  0 
   -4.7594    1.0901    6.2145 N   0  0  0  0  0  0  0  0  0  0  0  0 
   -2.4471    0.6519    6.7183 N   0  0  0  0  0  0  0  0  0  0  0  0 
   -3.0589    2.2060    5.1062 N   0  0  0  0  0  0  0  0  0  0  0  0 
   -1.3277    1.4995    2.2951 S   0  0  0  0  0  0  0  0  0  0  0  0 
   -3.2763    1.6355    1.5645 S   0  0  0  0  0  0  0  0  0  0  0  0 
    0.9613   -0.2595    3.0197 H   0  0  0  0  0  0  0  0  0  0  0  0 
    0.1513   -1.4784    4.0070 H   0  0  0  0  0  0  0  0  0  0  0  0 
   -4.8929    3.0426    4.7039 H   0  0  0  0  0  0  0  0  0  0  0  0 
   -3.5524    3.6872    3.7357 H   0  0  0  0  0  0  0  0  0  0  0  0 
   -2.0507   -0.4273    3.5884 H   0  0  0  0  0  0  0  0  0  0  0  0 
   -1.2529   -0.9242    2.0724 H   0  0  0  0  0  0  0  0  0  0  0  0 
   -5.3224    2.1896    2.5337 H   0  0  0  0  0  0  0  0  0  0  0  0 
   -4.6378    0.8352    3.4407 H   0  0  0  0  0  0  0  0  0  0  0  0 
    0.3360    1.3734    4.6502 H   0  0  0  0  0  0  0  0  0  0  0  0 
    0.9327    0.1171    5.4908 H   0  0  0  0  0  0  0  0  0  0  0  0 
   -4.9199    0.4178    6.9661 H   0  0  0  0  0  0  0  0  0  0  0  0 
   -2.7263   -0.1925    7.2010 H   0  0  0  0  0  0  0  0  0  0  0  0 
   -1.5727    0.5326    6.1989 H   0  0  0  0  0  0  0  0  0  0  0  0 
   -2.1079    2.1084    4.7799 H   0  0  0  0  0  0  0  0  0  0  0  0 
  1 13  1  0  0  0  0 
  1  6  1  0  0  0  0 
  2 14  1  0  0  0  0 
  2  9  1  0  0  0  0 
  3 16  1  0  0  0  0 
  3  1  1  0  0  0  0 
  4 19  1  0  0  0  0 
  4  2  1  0  0  0  0 
  5  7  1  0  0  0  0 
  5  8  2  0  0  0  0 
  6 21  1  0  0  0  0 
  7 22  1  0  0  0  0 
  8 23  1  0  0  0  0 
  9  5  1  0  0  0  0 
 10  3  1  0  0  0  0 
 11 10  1  0  0  0  0 
 11  4  1  0  0  0  0 
 12  1  1  0  0  0  0 
 15  2  1  0  0  0  0 
 17  3  1  0  0  0  0 
 18  4  1  0  0  0  0 
 20  6  1  0  0  0  0 
 24  8  1  0  0  0  0 
 25  9  1  0  0  0  0 
M  RAD  1   7   2 
M  END 
>  <HBA> 
6 
 
>  <HBD> 
3 
 
>  <TPSA> 
141.02 
 
>  <cid> 
38673 
 
>  <dipole> 
5.14 
 
>  <excitation_energy_1> 
3.936 
 
>  <excitation_energy_2> 
4.384 
 
>  <excitation_energy_3> 
4.677 
 
>  <excitation_energy_4> 
4.945 
 
>  <homo_energy> 
-5.524 
 
>  <homo_lumo_gap> 
4.642 
 
>  <logP> 
1.701 
 
>  <lumo_energy> 
-0.882 
 
>  <melting_point> 
172.65 
 
>  <molecular_refractivity> 
53.14 
 
>  <oscillator_strength_1> 
0.0055 
 
>  <oscillator_strength_2> 
0.003 
 
>  <oscillator_strength_3> 
0.0025 
 
>  <oscillator_strength_4> 
0.0067 
 
>  <open_babel_can_smiles> 
NCCSSCCNC(=[NH2])[NH] 
 
>  <mulliken_charges> 
25 
1   -0.158301 
2   -0.123425 
3   -0.403844 
4   -0.425237 
5   0.591521 
6   -0.73496 
7   -0.675014 
8   -0.794401 
9   -0.589355 
10   -0.038083 
11   0.017623 
12   0.150727 
13   0.163058 
14   0.194665 
15   0.155158 
16   0.192023 
17   0.18747 
18   0.18091 
19   0.204172 
20   0.326135 
21   0.317742 
22   0.258932 
23   0.306819 
24   0.365558 
25   0.330108 
 
>  <lowdin_charges> 
25 
1   -0.207167 
2   -0.197909 
3   -0.387769 
4   -0.392649 
5   0.12574 
6   -0.544823 
7   -0.512601 
8   -0.523747 
9   -0.303755 
10   -0.000643 
11   0.031323 
12   0.139326 
13   0.156217 
14   0.179298 
15   0.154851 
16   0.168516 
17   0.169762 
18   0.176528 
19   0.174246 
20   0.265328 
21   0.267252 
22   0.243609 
23   0.270394 
24   0.277099 
25   0.271575 
 
$$$$ 
 
