PCCDB-ID:  8016 
public computational chemistry database (PCCDB) project, http://pccdb.org 
 
 14 13  0  0  0  0  0  0  0  0999 V2000 
    2.7093   -0.7150    0.4823 C   0  0  0  0  0  0  0  0  0  0  0  0 
    3.4476    1.6259    0.3841 C   0  0  0  0  0  0  0  0  0  0  0  0 
    4.6869    2.4820    0.6496 C   0  0  0  0  0  0  0  0  0  0  0  0 
    3.8356    0.2140    0.4468 N   0  0  0  0  0  0  0  0  0  0  0  0 
    5.2915    2.1155    1.8739 O   0  0  0  0  0  0  0  0  0  0  0  0 
    3.0847   -1.7435    0.4833 H   0  0  0  0  0  0  0  0  0  0  0  0 
    2.0052   -0.6040   -0.3617 H   0  0  0  0  0  0  0  0  0  0  0  0 
    2.1452   -0.5631    1.4092 H   0  0  0  0  0  0  0  0  0  0  0  0 
    2.9677    1.9125   -0.5698 H   0  0  0  0  0  0  0  0  0  0  0  0 
    2.7187    1.8019    1.1848 H   0  0  0  0  0  0  0  0  0  0  0  0 
    4.4138    3.5413    0.7121 H   0  0  0  0  0  0  0  0  0  0  0  0 
    5.3937    2.3763   -0.1953 H   0  0  0  0  0  0  0  0  0  0  0  0 
    4.4229   -0.0027   -0.3581 H   0  0  0  0  0  0  0  0  0  0  0  0 
    5.1977    1.1439    1.9009 H   0  0  0  0  0  0  0  0  0  0  0  0 
  1  6  1  0  0  0  0 
  1  8  1  0  0  0  0 
  2  4  1  0  0  0  0 
  2  3  1  0  0  0  0 
  2 10  1  0  0  0  0 
  3 11  1  0  0  0  0 
  3  5  1  0  0  0  0 
  4  1  1  0  0  0  0 
  5 14  1  0  0  0  0 
  7  1  1  0  0  0  0 
  9  2  1  0  0  0  0 
 12  3  1  0  0  0  0 
 13  4  1  0  0  0  0 
M  END 
>  <HBA> 
2 
 
>  <HBD> 
2 
 
>  <TPSA> 
32.26 
 
>  <cid> 
8016 
 
>  <dipole> 
2.92 
 
>  <excitation_energy_1> 
5.717 
 
>  <excitation_energy_2> 
6.365 
 
>  <excitation_energy_3> 
6.524 
 
>  <excitation_energy_4> 
6.551 
 
>  <homo_energy> 
-6.416 
 
>  <homo_lumo_gap> 
8.493 
 
>  <logP> 
-0.411 
 
>  <lumo_energy> 
2.076 
 
>  <melting_point> 
21.23 
 
>  <molecular_refractivity> 
20.5 
 
>  <oscillator_strength_1> 
0.002 
 
>  <oscillator_strength_2> 
0.0251 
 
>  <oscillator_strength_3> 
0.0498 
 
>  <oscillator_strength_4> 
0.0037 
 
>  <open_babel_can_smiles> 
CNCCO 
 
>  <mulliken_charges> 
14 
1   -0.299293 
2   -0.151821 
3   -0.015359 
4   -0.562929 
5   -0.628986 
6   0.152921 
7   0.12765 
8   0.159352 
9   0.117362 
10   0.152163 
11   0.140339 
12   0.107593 
13   0.300393 
14   0.400616 
 
>  <lowdin_charges> 
14 
1   -0.359052 
2   -0.225025 
3   -0.13591 
4   -0.365779 
5   -0.474181 
6   0.151812 
7   0.126789 
8   0.152841 
9   0.125108 
10   0.149513 
11   0.144163 
12   0.11823 
13   0.255137 
14   0.336353 
 
$$$$ 
 
