PCCDB-ID:  31528 
public computational chemistry database (PCCDB) project, http://pccdb.org 
 
 20 19  0  0  1  0  0  0  0  0999 V2000 
    1.0713    0.0131   -0.0864 C   0  0  0  0  0  0  0  0  0  0  0  0 
    3.8748   -1.5760   -2.1175 C   0  0  0  0  0  0  0  0  0  0  0  0 
    4.2506    0.0908    1.4180 C   0  0  0  0  0  0  0  0  0  0  0  0 
    3.8978    2.3286   -0.6065 C   0  0  0  0  0  0  0  0  0  0  0  0 
    2.2794   -0.0038   -0.0694 C   0  0  0  0  0  0  0  0  0  0  0  0 
    4.2813   -1.3531   -0.6596 C   0  0  0  0  0  0  0  0  0  0  0  0 
    3.7587   -0.0360   -0.0381 C   0  0  2  0  0  0  0  0  0  0  0  0 
    4.3188    0.9993   -0.8603 O   0  0  0  0  0  0  0  0  0  0  0  0 
    0.0050    0.0292   -0.1018 H   0  0  0  0  0  0  0  0  0  0  0  0 
    4.2993   -2.5144   -2.4914 H   0  0  0  0  0  0  0  0  0  0  0  0 
    4.2350   -0.7597   -2.7495 H   0  0  0  0  0  0  0  0  0  0  0  0 
    2.7859   -1.6322   -2.2197 H   0  0  0  0  0  0  0  0  0  0  0  0 
    3.9086   -0.7626    2.0117 H   0  0  0  0  0  0  0  0  0  0  0  0 
    3.8735    1.0004    1.8942 H   0  0  0  0  0  0  0  0  0  0  0  0 
    5.3454    0.1148    1.4279 H   0  0  0  0  0  0  0  0  0  0  0  0 
    4.3645    2.9445   -1.3797 H   0  0  0  0  0  0  0  0  0  0  0  0 
    4.2260    2.6947    0.3770 H   0  0  0  0  0  0  0  0  0  0  0  0 
    2.8067    2.4303   -0.6753 H   0  0  0  0  0  0  0  0  0  0  0  0 
    5.3749   -1.3246   -0.5763 H   0  0  0  0  0  0  0  0  0  0  0  0 
    3.9304   -2.1840   -0.0356 H   0  0  0  0  0  0  0  0  0  0  0  0 
  1  5  3  0  0  0  0 
  2  6  1  0  0  0  0 
  3 15  1  0  0  0  0 
  3 14  1  0  0  0  0 
  3 13  1  0  0  0  0 
  4 17  1  0  0  0  0 
  6 19  1  0  0  0  0 
  6  7  1  0  0  0  0 
  6 20  1  0  0  0  0 
  7  5  1  6  0  0  0 
  7  3  1  0  0  0  0 
  8  4  1  0  0  0  0 
  8  7  1  0  0  0  0 
  9  1  1  0  0  0  0 
 10  2  1  0  0  0  0 
 11  2  1  0  0  0  0 
 12  2  1  0  0  0  0 
 16  4  1  0  0  0  0 
 18  4  1  0  0  0  0 
M  END 
>  <HBA> 
1 
 
>  <HBD> 
0 
 
>  <TPSA> 
9.23 
 
>  <cid> 
31528 
 
>  <dipole> 
1.04 
 
>  <excitation_energy_1> 
6.307 
 
>  <excitation_energy_2> 
6.583 
 
>  <excitation_energy_3> 
6.651 
 
>  <excitation_energy_4> 
6.696 
 
>  <homo_energy> 
-6.961 
 
>  <homo_lumo_gap> 
8.079 
 
>  <logP> 
1.435 
 
>  <lumo_energy> 
1.118 
 
>  <melting_point> 
-7.8 
 
>  <molecular_refractivity> 
35.05 
 
>  <oscillator_strength_1> 
0.0006 
 
>  <oscillator_strength_2> 
0.0049 
 
>  <oscillator_strength_3> 
0.0018 
 
>  <oscillator_strength_4> 
0.0072 
 
>  <open_babel_can_smiles> 
CC[C@](C#C)(OC)C 
 
>  <mulliken_charges> 
20 
1   -0.524125 
2   -0.451692 
3   -0.458036 
4   -0.205312 
5   0.349982 
6   -0.255784 
7   0.196188 
8   -0.48081 
9   0.191394 
10   0.138023 
11   0.165341 
12   0.15297 
13   0.154322 
14   0.154447 
15   0.155796 
16   0.156819 
17   0.131521 
18   0.147445 
19   0.143904 
20   0.137608 
 
>  <lowdin_charges> 
20 
1   -0.255021 
2   -0.447299 
3   -0.446201 
4   -0.283105 
5   -0.044015 
6   -0.266437 
7   0.136114 
8   -0.262961 
9   0.2039 
10   0.149233 
11   0.160047 
12   0.152402 
13   0.161099 
14   0.157558 
15   0.155853 
16   0.156975 
17   0.132034 
18   0.141906 
19   0.148481 
20   0.149437 
 
$$$$ 
 
