PCCDB-ID:  13635 
public computational chemistry database (PCCDB) project, http://pccdb.org 
 
 22 23  0  0  1  0  0  0  0  0999 V2000 
    2.9899    1.5065   -0.1392 C   0  0  0  0  0  0  0  0  0  0  0  0 
    2.4662    0.0642   -0.0926 C   0  0  0  0  0  0  0  0  0  0  0  0 
    2.2578   -2.2560   -1.0196 C   0  0  0  0  0  0  0  0  0  0  0  0 
    4.4217   -1.0461   -1.3108 C   0  0  0  0  0  0  0  0  0  0  0  0 
    2.4083   -0.3433   -2.6169 C   0  0  0  0  0  0  0  0  0  0  0  0 
    2.8912   -0.8669   -1.2491 C   0  0  2  0  0  0  0  0  0  0  0  0 
    2.6105   -3.1934   -2.0678 O   0  0  0  0  0  0  0  0  0  0  0  0 
    4.8052   -1.9668   -2.3663 O   0  0  0  0  0  0  0  0  0  0  0  0 
    2.7646   -1.2551   -3.6895 O   0  0  0  0  0  0  0  0  0  0  0  0 
    3.5762   -2.5925   -3.2342 P   0  0  2  0  0  0  0  0  0  0  0  0 
    4.0620   -3.7998   -4.6327 S   0  0  0  0  0  0  0  0  0  0  0  0 
    2.6236    2.0603    0.7313 H   0  0  0  0  0  0  0  0  0  0  0  0 
    2.6501    2.0424   -1.0318 H   0  0  0  0  0  0  0  0  0  0  0  0 
    4.0839    1.5517   -0.1164 H   0  0  0  0  0  0  0  0  0  0  0  0 
    1.3684    0.0841   -0.0615 H   0  0  0  0  0  0  0  0  0  0  0  0 
    2.7848   -0.4017    0.8498 H   0  0  0  0  0  0  0  0  0  0  0  0 
    1.1643   -2.1845   -0.9998 H   0  0  0  0  0  0  0  0  0  0  0  0 
    2.5985   -2.6846   -0.0702 H   0  0  0  0  0  0  0  0  0  0  0  0 
    4.8041   -1.4526   -0.3673 H   0  0  0  0  0  0  0  0  0  0  0  0 
    4.9280   -0.0981   -1.5162 H   0  0  0  0  0  0  0  0  0  0  0  0 
    2.8613    0.6233   -2.8575 H   0  0  0  0  0  0  0  0  0  0  0  0 
    1.3176   -0.2344   -2.6291 H   0  0  0  0  0  0  0  0  0  0  0  0 
  1 14  1  0  0  0  0 
  1  2  1  0  0  0  0 
  1 12  1  0  0  0  0 
  2 15  1  0  0  0  0 
  2 16  1  0  0  0  0 
  3 17  1  0  0  0  0 
  3 18  1  0  0  0  0 
  4  6  1  0  0  0  0 
  4 19  1  0  0  0  0 
  5  6  1  0  0  0  0 
  6  3  1  0  0  0  0 
  6  2  1  1  0  0  0 
  7  3  1  0  0  0  0 
  8  4  1  0  0  0  0 
  9 10  1  0  0  0  0 
  9  5  1  0  0  0  0 
 10 11  1  6  0  0  0 
 10  8  1  0  0  0  0 
 10  7  1  0  0  0  0 
 13  1  1  0  0  0  0 
 20  4  1  0  0  0  0 
 21  5  1  0  0  0  0 
 22  5  1  0  0  0  0 
M  RAD  1  11   2 
M  END 
>  <HBA> 
4 
 
>  <HBD> 
0 
 
>  <TPSA> 
69.59 
 
>  <cid> 
13635 
 
>  <dipole> 
8.26 
 
>  <excitation_energy_1> 
5.685 
 
>  <excitation_energy_2> 
5.687 
 
>  <excitation_energy_3> 
5.892 
 
>  <excitation_energy_4> 
5.893 
 
>  <homo_energy> 
-6.591 
 
>  <homo_lumo_gap> 
7.23 
 
>  <logP> 
2.335 
 
>  <lumo_energy> 
0.639 
 
>  <melting_point> 
26.85 
 
>  <molecular_refractivity> 
45.29 
 
>  <oscillator_strength_1> 
0.0037 
 
>  <oscillator_strength_2> 
0.0053 
 
>  <oscillator_strength_3> 
0.0215 
 
>  <oscillator_strength_4> 
0.0202 
 
>  <open_babel_can_smiles> 
CC[C@]12CO[P@](OC1)(OC2)[S] 
 
>  <mulliken_charges> 
22 
1   -0.462853 
2   -0.272002 
3   -0.017934 
4   -0.016839 
5   -0.016548 
6   -0.121037 
7   -0.536647 
8   -0.539577 
9   -0.539492 
10   1.083534 
11   -0.321934 
12   0.163606 
13   0.158726 
14   0.158652 
15   0.150253 
16   0.150228 
17   0.16235 
18   0.162315 
19   0.161497 
20   0.166111 
21   0.166104 
22   0.161487 
 
>  <lowdin_charges> 
22 
1   -0.447858 
2   -0.266892 
3   -0.119339 
4   -0.12094 
5   -0.118991 
6   -0.054093 
7   -0.394456 
8   -0.395279 
9   -0.396712 
10   0.917082 
11   -0.309663 
12   0.163626 
13   0.154701 
14   0.152143 
15   0.15021 
16   0.152517 
17   0.153739 
18   0.155948 
19   0.155868 
20   0.157443 
21   0.157306 
22   0.153641 
 
$$$$ 
 
