PCCDB-ID:  20861 
public computational chemistry database (PCCDB) project, http://pccdb.org 
 
 20 20  0  0  0  0  0  0  0  0999 V2000 
    3.7416    0.5692    0.9516 C   0  0  0  0  0  0  0  0  0  0  0  0 
    2.6319    0.0643    0.0103 C   0  0  0  0  0  0  0  0  0  0  0  0 
    2.4963   -2.4648    0.1299 C   0  0  0  0  0  0  0  0  0  0  0  0 
    3.6596   -1.4653   -1.7335 C   0  0  0  0  0  0  0  0  0  0  0  0 
    2.7992   -3.7319   -0.3618 C   0  0  0  0  0  0  0  0  0  0  0  0 
    3.9652   -2.7260   -2.2295 C   0  0  0  0  0  0  0  0  0  0  0  0 
    3.8510   -5.2202   -2.0647 C   0  0  0  0  0  0  0  0  0  0  0  0 
    2.9227   -1.3125   -0.5460 C   0  0  0  0  0  0  0  0  0  0  0  0 
    3.5361   -3.8733   -1.5445 C   0  0  0  0  0  0  0  0  0  0  0  0 
    4.4824   -5.4439   -3.0807 O   0  0  0  0  0  0  0  0  0  0  0  0 
    3.5010    1.5671    1.3350 H   0  0  0  0  0  0  0  0  0  0  0  0 
    4.7034    0.6273    0.4301 H   0  0  0  0  0  0  0  0  0  0  0  0 
    3.8671   -0.1038    1.8070 H   0  0  0  0  0  0  0  0  0  0  0  0 
    2.5101    0.7749   -0.8167 H   0  0  0  0  0  0  0  0  0  0  0  0 
    1.6786    0.0472    0.5528 H   0  0  0  0  0  0  0  0  0  0  0  0 
    1.9198   -2.3639    1.0466 H   0  0  0  0  0  0  0  0  0  0  0  0 
    3.9904   -0.5792   -2.2707 H   0  0  0  0  0  0  0  0  0  0  0  0 
    2.4604   -4.6196    0.1688 H   0  0  0  0  0  0  0  0  0  0  0  0 
    4.5307   -2.8506   -3.1481 H   0  0  0  0  0  0  0  0  0  0  0  0 
    3.4596   -6.0582   -1.4446 H   0  0  0  0  0  0  0  0  0  0  0  0 
  1 11  1  0  0  0  0 
  1 13  1  0  0  0  0 
  2 15  1  0  0  0  0 
  2  1  1  0  0  0  0 
  3 16  1  0  0  0  0 
  4  8  1  0  0  0  0 
  5  3  1  0  0  0  0 
  5 18  1  0  0  0  0 
  6  4  2  0  0  0  0 
  6  9  1  0  0  0  0 
  7  9  1  0  0  0  0 
  7 20  1  0  0  0  0 
  8  2  1  0  0  0  0 
  8  3  2  0  0  0  0 
  9  5  2  0  0  0  0 
 10  7  2  0  0  0  0 
 12  1  1  0  0  0  0 
 14  2  1  0  0  0  0 
 17  4  1  0  0  0  0 
 19  6  1  0  0  0  0 
M  END 
>  <HBA> 
1 
 
>  <HBD> 
0 
 
>  <TPSA> 
17.07 
 
>  <cid> 
20861 
 
>  <dipole> 
3.81 
 
>  <excitation_energy_1> 
3.712 
 
>  <excitation_energy_2> 
4.678 
 
>  <excitation_energy_3> 
4.941 
 
>  <excitation_energy_4> 
5.585 
 
>  <homo_energy> 
-6.841 
 
>  <homo_lumo_gap> 
5.236 
 
>  <logP> 
2.062 
 
>  <lumo_energy> 
-1.605 
 
>  <melting_point> 
41.26 
 
>  <molecular_refractivity> 
41.6 
 
>  <oscillator_strength_1> 
0.0001 
 
>  <oscillator_strength_2> 
0.0167 
 
>  <oscillator_strength_3> 
0.3716 
 
>  <oscillator_strength_4> 
0.0001 
 
>  <open_babel_can_smiles> 
CCc1ccc(cc1)C=O 
 
>  <mulliken_charges> 
20 
1   -0.435947 
2   -0.343074 
3   -0.184784 
4   -0.181489 
5   -0.177112 
6   -0.1563 
7   0.191703 
8   0.183352 
9   0.095167 
10   -0.410155 
11   0.14973 
12   0.153628 
13   0.152348 
14   0.149418 
15   0.148215 
16   0.131308 
17   0.133071 
18   0.13904 
19   0.162246 
20   0.099636 
 
>  <lowdin_charges> 
20 
1   -0.438881 
2   -0.272279 
3   -0.166487 
4   -0.165087 
5   -0.141247 
6   -0.122726 
7   0.04166 
8   0.020131 
9   -0.059773 
10   -0.230548 
11   0.152357 
12   0.152627 
13   0.152717 
14   0.153073 
15   0.151583 
16   0.158309 
17   0.159879 
18   0.161951 
19   0.175111 
20   0.117632 
 
$$$$ 
 
