PCCDB-ID:  58325 
public computational chemistry database (PCCDB) project, http://pccdb.org 
 
 34 35  0  0  0  0  0  0  0  0999 V2000 
    0.6352    0.1756    0.0248 C   0  0  0  0  0  0  0  0  0  0  0  0 
   11.2542   -2.4948    3.8288 C   0  0  0  0  0  0  0  0  0  0  0  0 
   11.3610   -1.1925    3.3375 C   0  0  0  0  0  0  0  0  0  0  0  0 
   10.0749   -3.2147    3.6285 C   0  0  0  0  0  0  0  0  0  0  0  0 
   10.2932   -0.6106    2.6543 C   0  0  0  0  0  0  0  0  0  0  0  0 
    8.9997   -2.6482    2.9423 C   0  0  0  0  0  0  0  0  0  0  0  0 
    4.0312   -1.2864    0.7795 C   0  0  0  0  0  0  0  0  0  0  0  0 
    4.2127    1.2138    0.6236 C   0  0  0  0  0  0  0  0  0  0  0  0 
    2.5070   -1.1255    0.8216 C   0  0  0  0  0  0  0  0  0  0  0  0 
    2.6817    1.2792    0.6739 C   0  0  0  0  0  0  0  0  0  0  0  0 
    9.1231   -1.3432    2.4670 C   0  0  0  0  0  0  0  0  0  0  0  0 
    4.7039   -0.0366    1.3426 C   0  0  0  0  0  0  0  0  0  0  0  0 
    6.8345   -0.7863    2.0676 C   0  0  0  0  0  0  0  0  0  0  0  0 
    2.0848    0.0744    0.1001 N   0  0  0  0  0  0  0  0  0  0  0  0 
    6.3869   -1.3549    3.0361 O   0  0  0  0  0  0  0  0  0  0  0  0 
    8.1375   -0.7169    1.6993 O   0  0  0  0  0  0  0  0  0  0  0  0 
    6.1453   -0.0951    1.1531 O   0  0  0  0  0  0  0  0  0  0  0  0 
    0.2279   -0.7154   -0.4654 H   0  0  0  0  0  0  0  0  0  0  0  0 
    0.3567    1.0499   -0.5737 H   0  0  0  0  0  0  0  0  0  0  0  0 
    0.1505    0.2715    1.0168 H   0  0  0  0  0  0  0  0  0  0  0  0 
   12.0851   -2.9468    4.3630 H   0  0  0  0  0  0  0  0  0  0  0  0 
   12.2753   -0.6245    3.4850 H   0  0  0  0  0  0  0  0  0  0  0  0 
    9.9858   -4.2295    4.0064 H   0  0  0  0  0  0  0  0  0  0  0  0 
   10.3526    0.3990    2.2606 H   0  0  0  0  0  0  0  0  0  0  0  0 
    8.0816   -3.2013    2.7916 H   0  0  0  0  0  0  0  0  0  0  0  0 
    4.3549   -1.4263   -0.2587 H   0  0  0  0  0  0  0  0  0  0  0  0 
    4.3324   -2.1669    1.3564 H   0  0  0  0  0  0  0  0  0  0  0  0 
    4.6455    2.1103    1.0821 H   0  0  0  0  0  0  0  0  0  0  0  0 
    4.5417    1.1789   -0.4213 H   0  0  0  0  0  0  0  0  0  0  0  0 
    2.1658   -1.1050    1.8784 H   0  0  0  0  0  0  0  0  0  0  0  0 
    2.0331   -1.9958    0.3534 H   0  0  0  0  0  0  0  0  0  0  0  0 
    2.3337    2.1455    0.0996 H   0  0  0  0  0  0  0  0  0  0  0  0 
    2.3507    1.4364    1.7227 H   0  0  0  0  0  0  0  0  0  0  0  0 
    4.5120    0.0352    2.4182 H   0  0  0  0  0  0  0  0  0  0  0  0 
  1 14  1  0  0  0  0 
  1 20  1  0  0  0  0 
  2 21  1  0  0  0  0 
  3 22  1  0  0  0  0 
  3  2  2  0  0  0  0 
  4  2  1  0  0  0  0 
  4 23  1  0  0  0  0 
  5  3  1  0  0  0  0 
  6  4  2  0  0  0  0 
  7  9  1  0  0  0  0 
  7 12  1  0  0  0  0 
  7 27  1  0  0  0  0 
  8 10  1  0  0  0  0 
  8 28  1  0  0  0  0 
  8 12  1  0  0  0  0 
  9 30  1  0  0  0  0 
 10 33  1  0  0  0  0 
 11  5  2  0  0  0  0 
 11  6  1  0  0  0  0 
 12 34  1  0  0  0  0 
 13 15  2  0  0  0  0 
 14 10  1  0  0  0  0 
 14  9  1  0  0  0  0 
 16 13  1  0  0  0  0 
 16 11  1  0  0  0  0 
 17 12  1  0  0  0  0 
 17 13  1  0  0  0  0 
 18  1  1  0  0  0  0 
 19  1  1  0  0  0  0 
 24  5  1  0  0  0  0 
 25  6  1  0  0  0  0 
 26  7  1  0  0  0  0 
 29  8  1  0  0  0  0 
 31  9  1  0  0  0  0 
 32 10  1  0  0  0  0 
M  END 
>  <HBA> 
4 
 
>  <HBD> 
0 
 
>  <TPSA> 
38.77 
 
>  <cid> 
58325 
 
>  <dipole> 
0.94 
 
>  <excitation_energy_1> 
5.276 
 
>  <excitation_energy_2> 
5.33 
 
>  <excitation_energy_3> 
5.36 
 
>  <excitation_energy_4> 
5.432 
 
>  <homo_energy> 
-5.929 
 
>  <homo_lumo_gap> 
5.853 
 
>  <logP> 
2.234 
 
>  <lumo_energy> 
-0.076 
 
>  <melting_point> 
52.42 
 
>  <molecular_refractivity> 
68.15 
 
>  <oscillator_strength_1> 
0.0026 
 
>  <oscillator_strength_2> 
0.0018 
 
>  <oscillator_strength_3> 
0.0003 
 
>  <oscillator_strength_4> 
0.0199 
 
>  <open_babel_can_smiles> 
CN1CCC(CC1)OC(=O)Oc1ccccc1 
 
>  <mulliken_charges> 
34 
1   -0.292822 
2   -0.122748 
3   -0.139143 
4   -0.144899 
5   -0.161875 
6   -0.135317 
7   -0.285122 
8   -0.276987 
9   -0.130084 
10   -0.129634 
11   0.336951 
12   0.123763 
13   0.790844 
14   -0.377157 
15   -0.480439 
16   -0.516636 
17   -0.47333 
18   0.150202 
19   0.149698 
20   0.119743 
21   0.131658 
22   0.135454 
23   0.136568 
24   0.145034 
25   0.156364 
26   0.153934 
27   0.158198 
28   0.146543 
29   0.158339 
30   0.114361 
31   0.144469 
32   0.14461 
33   0.110762 
34   0.158697 
 
>  <lowdin_charges> 
34 
1   -0.355918 
2   -0.163471 
3   -0.150044 
4   -0.146846 
5   -0.169632 
6   -0.168852 
7   -0.292223 
8   -0.284405 
9   -0.197879 
10   -0.198486 
11   0.104287 
12   0.008743 
13   0.240853 
14   -0.187951 
15   -0.279266 
16   -0.145208 
17   -0.172096 
18   0.151566 
19   0.151222 
20   0.121491 
21   0.160523 
22   0.161227 
23   0.160212 
24   0.168735 
25   0.175838 
26   0.153402 
27   0.160792 
28   0.155195 
29   0.155842 
30   0.11568 
31   0.15084 
32   0.150696 
33   0.114101 
34   0.15103 
 
$$$$ 
 
