PCCDB-ID:  53657 
public computational chemistry database (PCCDB) project, http://pccdb.org 
 
 17 16  0  0  0  0  0  0  0  0999 V2000 
    1.2155    0.1951   -0.1077 C   0  0  0  0  0  0  0  0  0  0  0  0 
    2.5604    0.3057    0.6174 C   0  0  0  0  0  0  0  0  0  0  0  0 
    3.7469    0.2259   -0.3522 C   0  0  0  0  0  0  0  0  0  0  0  0 
    5.8615    1.3844    0.1997 C   0  0  0  0  0  0  0  0  0  0  0  0 
    5.5232   -0.7874    1.0794 N   0  0  0  0  0  0  0  0  0  0  0  0 
    5.0483    0.2857    0.3055 N   0  0  0  0  0  0  0  0  0  0  0  0 
    5.5882    2.3944   -0.4265 O   0  0  0  0  0  0  0  0  0  0  0  0 
    0.3802    0.2625    0.5973 H   0  0  0  0  0  0  0  0  0  0  0  0 
    1.1262   -0.7599   -0.6398 H   0  0  0  0  0  0  0  0  0  0  0  0 
    1.0965    0.9984   -0.8443 H   0  0  0  0  0  0  0  0  0  0  0  0 
    2.6366   -0.4958    1.3661 H   0  0  0  0  0  0  0  0  0  0  0  0 
    2.6184    1.2548    1.1642 H   0  0  0  0  0  0  0  0  0  0  0  0 
    3.7232    1.0674   -1.0498 H   0  0  0  0  0  0  0  0  0  0  0  0 
    3.6944   -0.7035   -0.9395 H   0  0  0  0  0  0  0  0  0  0  0  0 
    6.8014    1.2318    0.7585 H   0  0  0  0  0  0  0  0  0  0  0  0 
    5.5557   -1.6285    0.5018 H   0  0  0  0  0  0  0  0  0  0  0  0 
    4.8772   -0.9658    1.8481 H   0  0  0  0  0  0  0  0  0  0  0  0 
  1  8  1  0  0  0  0 
  1  2  1  0  0  0  0 
  2 12  1  0  0  0  0 
  2 11  1  0  0  0  0 
  3  6  1  0  0  0  0 
  3  2  1  0  0  0  0 
  4  6  1  0  0  0  0 
  4 15  1  0  0  0  0 
  5 17  1  0  0  0  0 
  6  5  1  0  0  0  0 
  7  4  2  0  0  0  0 
  9  1  1  0  0  0  0 
 10  1  1  0  0  0  0 
 13  3  1  0  0  0  0 
 14  3  1  0  0  0  0 
 16  5  1  0  0  0  0 
M  END 
>  <HBA> 
3 
 
>  <HBD> 
1 
 
>  <TPSA> 
46.33 
 
>  <cid> 
53657 
 
>  <dipole> 
4.41 
 
>  <excitation_energy_1> 
5.617 
 
>  <excitation_energy_2> 
5.913 
 
>  <excitation_energy_3> 
6.221 
 
>  <excitation_energy_4> 
6.592 
 
>  <homo_energy> 
-6.675 
 
>  <homo_lumo_gap> 
7.578 
 
>  <logP> 
1.065 
 
>  <lumo_energy> 
0.903 
 
>  <melting_point> 
53.04 
 
>  <molecular_refractivity> 
27.53 
 
>  <oscillator_strength_1> 
0.0011 
 
>  <oscillator_strength_2> 
0.0105 
 
>  <oscillator_strength_3> 
0.0081 
 
>  <oscillator_strength_4> 
0.0683 
 
>  <open_babel_can_smiles> 
CCCN(C=O)N 
 
>  <mulliken_charges> 
17 
1   -0.447127 
2   -0.256563 
3   -0.137363 
4   0.369557 
5   -0.574401 
6   -0.293855 
7   -0.470161 
8   0.151651 
9   0.143809 
10   0.155332 
11   0.119942 
12   0.15799 
13   0.188106 
14   0.132443 
15   0.123083 
16   0.316195 
17   0.321363 
 
>  <lowdin_charges> 
17 
1   -0.444631 
2   -0.282048 
3   -0.209795 
4   0.043034 
5   -0.451021 
6   -0.068251 
7   -0.300439 
8   0.155946 
9   0.147595 
10   0.154203 
11   0.133536 
12   0.153357 
13   0.175848 
14   0.138094 
15   0.132287 
16   0.260659 
17   0.261626 
 
$$$$ 
 
