PCCDB-ID:  14086 
public computational chemistry database (PCCDB) project, http://pccdb.org 
 
 17 17  0  0  0  0  0  0  0  0999 V2000 
    4.6101   -0.0375   -0.9352 C   0  0  0  0  0  0  0  0  0  0  0  0 
    4.6621    0.2515    3.8722 C   0  0  0  0  0  0  0  0  0  0  0  0 
    3.8961   -1.9894    3.3587 C   0  0  0  0  0  0  0  0  0  0  0  0 
    4.2620    0.6745    2.6053 C   0  0  0  0  0  0  0  0  0  0  0  0 
    3.4981   -1.5568    2.0982 C   0  0  0  0  0  0  0  0  0  0  0  0 
    4.4816   -1.0832    4.2508 C   0  0  0  0  0  0  0  0  0  0  0  0 
    3.6818   -0.2232    1.7010 C   0  0  0  0  0  0  0  0  0  0  0  0 
    4.8489   -1.5588    5.4773 O   0  0  0  0  0  0  0  0  0  0  0  0 
    3.1317    0.3371    0.0878 S   0  0  0  0  0  0  0  0  0  0  0  0 
    4.3711    0.2721   -1.9567 H   0  0  0  0  0  0  0  0  0  0  0  0 
    4.8313   -1.1081   -0.9290 H   0  0  0  0  0  0  0  0  0  0  0  0 
    5.4816    0.5224   -0.5857 H   0  0  0  0  0  0  0  0  0  0  0  0 
    5.1123    0.9590    4.5667 H   0  0  0  0  0  0  0  0  0  0  0  0 
    3.7547   -3.0187    3.6730 H   0  0  0  0  0  0  0  0  0  0  0  0 
    4.3983    1.7123    2.3163 H   0  0  0  0  0  0  0  0  0  0  0  0 
    3.0333   -2.2577    1.4111 H   0  0  0  0  0  0  0  0  0  0  0  0 
    5.2337   -0.8349    5.9956 H   0  0  0  0  0  0  0  0  0  0  0  0 
  1 11  1  0  0  0  0 
  1 12  1  0  0  0  0 
  1  9  1  0  0  0  0 
  2  6  1  0  0  0  0 
  2 13  1  0  0  0  0 
  3 14  1  0  0  0  0 
  3  6  2  0  0  0  0 
  4  2  2  0  0  0  0 
  5  3  1  0  0  0  0 
  6  8  1  0  0  0  0 
  7  5  2  0  0  0  0 
  7  4  1  0  0  0  0 
  8 17  1  0  0  0  0 
  9  7  1  0  0  0  0 
 10  1  1  0  0  0  0 
 15  4  1  0  0  0  0 
 16  5  1  0  0  0  0 
M  END 
>  <HBA> 
2 
 
>  <HBD> 
1 
 
>  <TPSA> 
45.53 
 
>  <cid> 
14086 
 
>  <dipole> 
2.36 
 
>  <excitation_energy_1> 
4.66 
 
>  <excitation_energy_2> 
4.757 
 
>  <excitation_energy_3> 
4.995 
 
>  <excitation_energy_4> 
5.27 
 
>  <homo_energy> 
-6.022 
 
>  <homo_lumo_gap> 
5.831 
 
>  <logP> 
2.114 
 
>  <lumo_energy> 
-0.19 
 
>  <melting_point> 
57.11 
 
>  <molecular_refractivity> 
40.19 
 
>  <oscillator_strength_1> 
0.0018 
 
>  <oscillator_strength_2> 
0.001 
 
>  <oscillator_strength_3> 
0.0174 
 
>  <oscillator_strength_4> 
0.0016 
 
>  <open_babel_can_smiles> 
CSc1ccc(cc1)O 
 
>  <mulliken_charges> 
17 
1   -0.574148 
2   -0.184176 
3   -0.148019 
4   -0.146183 
5   -0.146486 
6   0.349455 
7   -0.09777 
8   -0.637475 
9   0.071739 
10   0.178856 
11   0.180024 
12   0.179335 
13   0.122683 
14   0.144588 
15   0.149245 
16   0.148984 
17   0.409347 
 
>  <lowdin_charges> 
17 
1   -0.540715 
2   -0.216388 
3   -0.184808 
4   -0.139604 
5   -0.141785 
6   0.109646 
7   -0.15172 
8   -0.375248 
9   0.120193 
10   0.172044 
11   0.161711 
12   0.163694 
13   0.156825 
14   0.168938 
15   0.167259 
16   0.169899 
17   0.36006 
 
$$$$ 
 
