PCCDB-ID:  17048 
public computational chemistry database (PCCDB) project, http://pccdb.org 
 
 24 25  0  0  1  0  0  0  0  0999 V2000 
    1.1610    0.3892    0.0278 C   0  0  0  0  0  0  0  0  0  0  0  0 
    0.3282    1.2143   -0.9657 C   0  0  0  0  0  0  0  0  0  0  0  0 
    2.5695    0.9557    0.2788 C   0  0  0  0  0  0  0  0  0  0  0  0 
   -1.0820    0.6511   -1.2141 C   0  0  0  0  0  0  0  0  0  0  0  0 
    4.5621    1.8366   -1.1670 C   0  0  0  0  0  0  0  0  0  0  0  0 
   -2.1432   -1.6762   -1.7568 C   0  0  0  0  0  0  0  0  0  0  0  0 
    3.4851    0.8671   -0.9211 C   0  0  2  0  0  0  0  0  0  0  0  0 
   -1.0901   -0.6693   -1.9505 C   0  0  2  0  0  0  0  0  0  0  0  0 
    3.3518    1.8816   -1.9328 O   0  0  0  0  0  0  0  0  0  0  0  0 
   -0.8443   -1.8596   -1.1801 O   0  0  0  0  0  0  0  0  0  0  0  0 
    1.2422   -0.6475   -0.3223 H   0  0  0  0  0  0  0  0  0  0  0  0 
    0.6259    0.3373    0.9861 H   0  0  0  0  0  0  0  0  0  0  0  0 
    0.8606    1.2978   -1.9215 H   0  0  0  0  0  0  0  0  0  0  0  0 
    0.2357    2.2417   -0.5872 H   0  0  0  0  0  0  0  0  0  0  0  0 
    3.0386    0.4002    1.1037 H   0  0  0  0  0  0  0  0  0  0  0  0 
    2.5061    2.0051    0.5965 H   0  0  0  0  0  0  0  0  0  0  0  0 
   -1.6578    1.3740   -1.8099 H   0  0  0  0  0  0  0  0  0  0  0  0 
   -1.6148    0.5265   -0.2617 H   0  0  0  0  0  0  0  0  0  0  0  0 
    5.4536    1.5358   -1.7186 H   0  0  0  0  0  0  0  0  0  0  0  0 
    4.7063    2.6666   -0.4738 H   0  0  0  0  0  0  0  0  0  0  0  0 
   -2.3978   -2.3638   -2.5641 H   0  0  0  0  0  0  0  0  0  0  0  0 
   -2.9466   -1.4829   -1.0445 H   0  0  0  0  0  0  0  0  0  0  0  0 
    3.6134   -0.1380   -1.3326 H   0  0  0  0  0  0  0  0  0  0  0  0 
   -0.5729   -0.6650   -2.9142 H   0  0  0  0  0  0  0  0  0  0  0  0 
  1  3  1  0  0  0  0 
  1 12  1  0  0  0  0 
  2 14  1  0  0  0  0 
  2  1  1  0  0  0  0 
  3 16  1  0  0  0  0 
  3 15  1  0  0  0  0 
  4  2  1  0  0  0  0 
  4 18  1  0  0  0  0 
  5  7  1  0  0  0  0 
  5 20  1  0  0  0  0 
  6 10  1  0  0  0  0 
  6 22  1  0  0  0  0 
  7 23  1  6  0  0  0 
  7  3  1  0  0  0  0 
  8 24  1  6  0  0  0 
  8  6  1  0  0  0  0 
  8  4  1  0  0  0  0 
  8 10  1  0  0  0  0 
  9  5  1  0  0  0  0 
  9  7  1  0  0  0  0 
 11  1  1  0  0  0  0 
 13  2  1  0  0  0  0 
 17  4  1  0  0  0  0 
 19  5  1  0  0  0  0 
 21  6  1  0  0  0  0 
M  END 
>  <HBA> 
2 
 
>  <HBD> 
0 
 
>  <TPSA> 
25.06 
 
>  <cid> 
17048 
 
>  <dipole> 
0.68 
 
>  <excitation_energy_1> 
6.853 
 
>  <excitation_energy_2> 
6.854 
 
>  <excitation_energy_3> 
7.039 
 
>  <excitation_energy_4> 
7.041 
 
>  <homo_energy> 
-7.086 
 
>  <homo_lumo_gap> 
9.598 
 
>  <logP> 
1.344 
 
>  <lumo_energy> 
2.512 
 
>  <melting_point> 
-0.63 
 
>  <molecular_refractivity> 
38.51 
 
>  <oscillator_strength_1> 
0.0186 
 
>  <oscillator_strength_2> 
0.018 
 
>  <oscillator_strength_3> 
0.0089 
 
>  <oscillator_strength_4> 
0.0003 
 
>  <open_babel_can_smiles> 
C(C[C@H]1OC1)CC[C@H]1OC1 
 
>  <mulliken_charges> 
24 
1   -0.265936 
2   -0.266022 
3   -0.280927 
4   -0.280846 
5   -0.113017 
6   -0.113376 
7   0.103746 
8   0.103558 
9   -0.444737 
10   -0.444502 
11   0.160082 
12   0.130933 
13   0.16015 
14   0.130925 
15   0.138721 
16   0.137681 
17   0.138715 
18   0.137671 
19   0.147259 
20   0.146582 
21   0.147296 
22   0.146747 
23   0.139646 
24   0.139652 
 
>  <lowdin_charges> 
24 
1   -0.276333 
2   -0.276503 
3   -0.280917 
4   -0.282488 
5   -0.168536 
6   -0.168915 
7   -0.021082 
8   -0.021845 
9   -0.296087 
10   -0.296078 
11   0.151887 
12   0.142705 
13   0.152982 
14   0.14179 
15   0.152529 
16   0.146992 
17   0.152944 
18   0.148272 
19   0.152598 
20   0.15101 
21   0.152872 
22   0.151458 
23   0.145248 
24   0.145493 
 
$$$$ 
 
