PCCDB-ID:  7235 
public computational chemistry database (PCCDB) project, http://pccdb.org 
 
 16 15  0  0  0  0  0  0  0  0999 V2000 
    0.9505   -0.1858   -0.0063 C   0  0  0  0  0  0  0  0  0  0  0  0 
    4.5060    1.4835    0.3865 C   0  0  0  0  0  0  0  0  0  0  0  0 
    2.4301    0.0537    0.0422 C   0  0  0  0  0  0  0  0  0  0  0  0 
    3.0196    1.2581    0.3575 C   0  0  0  0  0  0  0  0  0  0  0  0 
    3.2389   -1.0410   -0.1743 N   0  0  0  0  0  0  0  0  0  0  0  0 
    2.1222    2.2866    0.6736 N   0  0  0  0  0  0  0  0  0  0  0  0 
    2.7000   -2.0711   -0.9799 O   0  0  0  0  0  0  0  0  0  0  0  0 
    2.6290    3.3802    0.9531 O   0  0  0  0  0  0  0  0  0  0  0  0 
    0.4240    0.7200    0.2873 H   0  0  0  0  0  0  0  0  0  0  0  0 
    0.6748   -1.0090    0.6633 H   0  0  0  0  0  0  0  0  0  0  0  0 
    0.6496   -0.4801   -1.0173 H   0  0  0  0  0  0  0  0  0  0  0  0 
    4.9825    1.2657   -0.5802 H   0  0  0  0  0  0  0  0  0  0  0  0 
    5.0055    0.8765    1.1529 H   0  0  0  0  0  0  0  0  0  0  0  0 
    4.6769    2.5379    0.6186 H   0  0  0  0  0  0  0  0  0  0  0  0 
    4.1847   -0.8434   -0.4878 H   0  0  0  0  0  0  0  0  0  0  0  0 
    2.6466   -2.8315   -0.3762 H   0  0  0  0  0  0  0  0  0  0  0  0 
  1  3  1  0  0  0  0 
  1  9  1  0  0  0  0 
  1 10  1  0  0  0  0 
  2 14  1  0  0  0  0 
  2 13  1  0  0  0  0 
  3  4  2  0  0  0  0 
  4  2  1  0  0  0  0 
  4  6  1  0  0  0  0 
  5  3  1  0  0  0  0 
  6  8  2  0  0  0  0 
  7 16  1  0  0  0  0 
  7  5  1  0  0  0  0 
 11  1  1  0  0  0  0 
 12  2  1  0  0  0  0 
 15  5  1  0  0  0  0 
M  END 
>  <HBA> 
4 
 
>  <HBD> 
2 
 
>  <TPSA> 
61.69 
 
>  <cid> 
7235 
 
>  <dipole> 
5.66 
 
>  <excitation_energy_1> 
1.799 
 
>  <excitation_energy_2> 
4.385 
 
>  <excitation_energy_3> 
4.516 
 
>  <excitation_energy_4> 
4.885 
 
>  <homo_energy> 
-5.181 
 
>  <homo_lumo_gap> 
3.442 
 
>  <logP> 
1.374 
 
>  <lumo_energy> 
-1.739 
 
>  <melting_point> 
91.53 
 
>  <molecular_refractivity> 
29.14 
 
>  <oscillator_strength_1> 
0.0004 
 
>  <oscillator_strength_2> 
0.0008 
 
>  <oscillator_strength_3> 
0.3822 
 
>  <oscillator_strength_4> 
0.0303 
 
>  <open_babel_can_smiles> 
ON/C(=C(/N=O)\C)/C 
 
>  <mulliken_charges> 
16 
1   -0.516371 
2   -0.563246 
3   0.335536 
4   0.213827 
5   -0.395313 
6   -0.076289 
7   -0.49404 
8   -0.351908 
9   0.211688 
10   0.159671 
11   0.1847 
12   0.149458 
13   0.160893 
14   0.203757 
15   0.351779 
16   0.425859 
 
>  <lowdin_charges> 
16 
1   -0.448874 
2   -0.472379 
3   0.085342 
4   -0.072074 
5   -0.152519 
6   0.010714 
7   -0.382319 
8   -0.243256 
9   0.18956 
10   0.165067 
11   0.175804 
12   0.152742 
13   0.159855 
14   0.183802 
15   0.286294 
16   0.36224 
 
$$$$ 
 
