PCCDB-ID:  34335 
public computational chemistry database (PCCDB) project, http://pccdb.org 
 
 21 21  0  0  1  0  0  0  0  0999 V2000 
    0.9869    0.0399   -0.3606 C   0  0  0  0  0  0  0  0  0  0  0  0 
    2.8512    2.4671    0.4492 C   0  0  0  0  0  0  0  0  0  0  0  0 
    4.1816    1.2997    3.1467 C   0  0  0  0  0  0  0  0  0  0  0  0 
    2.8599   -1.3760    0.7007 C   0  0  0  0  0  0  0  0  0  0  0  0 
    2.4898   -0.0785   -0.0489 C   0  0  2  0  0  0  0  0  0  0  0  0 
    3.0017    1.0345    0.8607 C   0  0  0  0  0  0  0  0  0  0  0  0 
    3.5686    0.5652    1.9946 C   0  0  0  0  0  0  0  0  0  0  0  0 
    3.5326   -0.9160    1.9965 C   0  0  0  0  0  0  0  0  0  0  0  0 
    3.9702   -1.6418    2.8732 O   0  0  0  0  0  0  0  0  0  0  0  0 
    0.6624   -0.7873   -1.0016 H   0  0  0  0  0  0  0  0  0  0  0  0 
    0.7512    0.9751   -0.8804 H   0  0  0  0  0  0  0  0  0  0  0  0 
    0.3943    0.0051    0.5616 H   0  0  0  0  0  0  0  0  0  0  0  0 
    3.2227    2.6183   -0.5733 H   0  0  0  0  0  0  0  0  0  0  0  0 
    3.3875    3.1502    1.1130 H   0  0  0  0  0  0  0  0  0  0  0  0 
    1.7949    2.7673    0.4437 H   0  0  0  0  0  0  0  0  0  0  0  0 
    4.3154    2.3663    2.9451 H   0  0  0  0  0  0  0  0  0  0  0  0 
    5.1550    0.8631    3.3966 H   0  0  0  0  0  0  0  0  0  0  0  0 
    3.5596    1.1986    4.0451 H   0  0  0  0  0  0  0  0  0  0  0  0 
    3.5495   -2.0151    0.1381 H   0  0  0  0  0  0  0  0  0  0  0  0 
    1.9853   -1.9922    0.9402 H   0  0  0  0  0  0  0  0  0  0  0  0 
    3.0310   -0.0198   -1.0057 H   0  0  0  0  0  0  0  0  0  0  0  0 
  1  5  1  0  0  0  0 
  1 12  1  0  0  0  0 
  2  6  1  0  0  0  0 
  2 14  1  0  0  0  0 
  3 17  1  0  0  0  0 
  3 18  1  0  0  0  0 
  4 20  1  0  0  0  0 
  4  8  1  0  0  0  0 
  5 21  1  6  0  0  0 
  5  4  1  0  0  0  0 
  5  6  1  0  0  0  0 
  6  7  2  0  0  0  0 
  7  8  1  0  0  0  0 
  7  3  1  0  0  0  0 
  8  9  2  0  0  0  0 
 10  1  1  0  0  0  0 
 11  1  1  0  0  0  0 
 13  2  1  0  0  0  0 
 15  2  1  0  0  0  0 
 16  3  1  0  0  0  0 
 19  4  1  0  0  0  0 
M  END 
>  <HBA> 
1 
 
>  <HBD> 
0 
 
>  <TPSA> 
17.07 
 
>  <cid> 
34335 
 
>  <dipole> 
3.81 
 
>  <excitation_energy_1> 
3.855 
 
>  <excitation_energy_2> 
5.566 
 
>  <excitation_energy_3> 
5.83 
 
>  <excitation_energy_4> 
6.141 
 
>  <homo_energy> 
-6.259 
 
>  <homo_lumo_gap> 
5.347 
 
>  <logP> 
1.932 
 
>  <lumo_energy> 
-0.912 
 
>  <melting_point> 
32.71 
 
>  <molecular_refractivity> 
38.18 
 
>  <oscillator_strength_1> 
0.0004 
 
>  <oscillator_strength_2> 
0.3362 
 
>  <oscillator_strength_3> 
0.0048 
 
>  <oscillator_strength_4> 
0.0058 
 
>  <open_babel_can_smiles> 
C[C@@H]1CC(=O)C(=C1C)C 
 
>  <mulliken_charges> 
21 
1   -0.453356 
2   -0.530074 
3   -0.519384 
4   -0.376069 
5   -0.145887 
6   0.113141 
7   0.073458 
8   0.389928 
9   -0.478231 
10   0.153191 
11   0.146649 
12   0.150799 
13   0.162667 
14   0.165932 
15   0.171264 
16   0.147681 
17   0.175543 
18   0.170602 
19   0.17096 
20   0.170685 
21   0.140502 
 
>  <lowdin_charges> 
21 
1   -0.445213 
2   -0.444772 
3   -0.437892 
4   -0.312433 
5   -0.124708 
6   0.016502 
7   -0.065039 
8   0.142646 
9   -0.257932 
10   0.155742 
11   0.150262 
12   0.151553 
13   0.162068 
14   0.164126 
15   0.166074 
16   0.152356 
17   0.170447 
18   0.168204 
19   0.17151 
20   0.169329 
21   0.147171 
 
$$$$ 
 
