PCCDB-ID:  69037 
public computational chemistry database (PCCDB) project, http://pccdb.org 
 
 20 19  0  0  0  0  0  0  0  0999 V2000 
    1.6784   -1.4742   -0.0682 C   0  0  0  0  0  0  0  0  0  0  0  0 
    2.8403   -0.4704   -2.0920 C   0  0  0  0  0  0  0  0  0  0  0  0 
    2.4247   -0.2567   -0.6293 C   0  0  0  0  0  0  0  0  0  0  0  0 
    1.5843    1.0653   -0.4238 C   0  0  0  0  0  0  0  0  0  0  0  0 
    2.4855    2.2588   -0.6412 C   0  0  0  0  0  0  0  0  0  0  0  0 
    0.3118    1.0526   -1.2938 C   0  0  0  0  0  0  0  0  0  0  0  0 
    2.6123    2.8779   -1.6886 O   0  0  0  0  0  0  0  0  0  0  0  0 
    3.2031    2.5651    0.4516 O   0  0  0  0  0  0  0  0  0  0  0  0 
   -0.6696    0.4436   -0.9372 O   0  0  0  0  0  0  0  0  0  0  0  0 
    0.3623    1.6819   -2.4771 O   0  0  0  0  0  0  0  0  0  0  0  0 
    2.3034   -2.3686   -0.1704 H   0  0  0  0  0  0  0  0  0  0  0  0 
    0.7372   -1.6467   -0.5971 H   0  0  0  0  0  0  0  0  0  0  0  0 
    1.4449   -1.3435    0.9942 H   0  0  0  0  0  0  0  0  0  0  0  0 
    3.4962   -1.3443   -2.1677 H   0  0  0  0  0  0  0  0  0  0  0  0 
    3.3834    0.3897   -2.4982 H   0  0  0  0  0  0  0  0  0  0  0  0 
    1.9700   -0.6521   -2.7325 H   0  0  0  0  0  0  0  0  0  0  0  0 
    3.3333   -0.1138   -0.0293 H   0  0  0  0  0  0  0  0  0  0  0  0 
    1.2508    1.0750    0.6170 H   0  0  0  0  0  0  0  0  0  0  0  0 
    3.7794    3.3169    0.2120 H   0  0  0  0  0  0  0  0  0  0  0  0 
    1.2028    2.1946   -2.5381 H   0  0  0  0  0  0  0  0  0  0  0  0 
  1 13  1  0  0  0  0 
  2  3  1  0  0  0  0 
  3  4  1  0  0  0  0 
  3  1  1  0  0  0  0 
  3 17  1  0  0  0  0 
  4 18  1  0  0  0  0 
  5  4  1  0  0  0  0 
  5  8  1  0  0  0  0 
  6  9  2  0  0  0  0 
  6  4  1  0  0  0  0 
  7  5  2  0  0  0  0 
 10  6  1  0  0  0  0 
 11  1  1  0  0  0  0 
 12  1  1  0  0  0  0 
 14  2  1  0  0  0  0 
 15  2  1  0  0  0  0 
 16  2  1  0  0  0  0 
 19  8  1  0  0  0  0 
 20 10  1  0  0  0  0 
M  END 
>  <HBA> 
4 
 
>  <HBD> 
2 
 
>  <TPSA> 
74.6 
 
>  <cid> 
69037 
 
>  <dipole> 
4.86 
 
>  <excitation_energy_1> 
5.443 
 
>  <excitation_energy_2> 
5.777 
 
>  <excitation_energy_3> 
5.896 
 
>  <excitation_energy_4> 
6.554 
 
>  <homo_energy> 
-7.279 
 
>  <homo_lumo_gap> 
6.471 
 
>  <logP> 
0.428 
 
>  <lumo_energy> 
-0.808 
 
>  <melting_point> 
127.75 
 
>  <molecular_refractivity> 
34.5 
 
>  <oscillator_strength_1> 
0.0062 
 
>  <oscillator_strength_2> 
0.0069 
 
>  <oscillator_strength_3> 
0.0051 
 
>  <oscillator_strength_4> 
0.0094 
 
>  <open_babel_can_smiles> 
CC(C(C(=O)O)C(=O)O)C 
 
>  <mulliken_charges> 
20 
1   -0.447351 
2   -0.472607 
3   -0.09479 
4   -0.278939 
5   0.600092 
6   0.609146 
7   -0.49427 
8   -0.551247 
9   -0.455783 
10   -0.584601 
11   0.146197 
12   0.183058 
13   0.148921 
14   0.155266 
15   0.154848 
16   0.171466 
17   0.151593 
18   0.194573 
19   0.421532 
20   0.442898 
 
>  <lowdin_charges> 
20 
1   -0.444764 
2   -0.458632 
3   -0.105746 
4   -0.194882 
5   0.20725 
6   0.191299 
7   -0.283986 
8   -0.328471 
9   -0.249776 
10   -0.353159 
11   0.153419 
12   0.168532 
13   0.152204 
14   0.158471 
15   0.154831 
16   0.161731 
17   0.149533 
18   0.187197 
19   0.370779 
20   0.364171 
 
$$$$ 
 
