PCCDB-ID:  8883 
public computational chemistry database (PCCDB) project, http://pccdb.org 
 
 24 23  0  0  0  0  0  0  0  0999 V2000 
    1.2353    1.0306   -0.0069 C   0  0  0  0  0  0  0  0  0  0  0  0 
    2.0736   -1.2890    0.6107 C   0  0  0  0  0  0  0  0  0  0  0  0 
    5.0001    0.4995   -4.1458 C   0  0  0  0  0  0  0  0  0  0  0  0 
    4.2209   -1.9197   -4.0940 C   0  0  0  0  0  0  0  0  0  0  0  0 
    2.9452   -0.1029   -1.3732 C   0  0  0  0  0  0  0  0  0  0  0  0 
    3.3101   -0.2519   -2.5155 C   0  0  0  0  0  0  0  0  0  0  0  0 
    2.4455    0.0764    0.0001 C   0  0  0  0  0  0  0  0  0  0  0  0 
    3.8133   -0.4481   -3.8849 C   0  0  0  0  0  0  0  0  0  0  0  0 
    3.5249    0.6645    0.7492 O   0  0  0  0  0  0  0  0  0  0  0  0 
    2.7244   -0.1188   -4.7679 O   0  0  0  0  0  0  0  0  0  0  0  0 
    0.4143    0.6264   -0.6075 H   0  0  0  0  0  0  0  0  0  0  0  0 
    1.5278    2.0004   -0.4177 H   0  0  0  0  0  0  0  0  0  0  0  0 
    0.8704    1.1772    1.0183 H   0  0  0  0  0  0  0  0  0  0  0  0 
    1.2828   -1.7792    0.0339 H   0  0  0  0  0  0  0  0  0  0  0  0 
    1.7137   -1.1543    1.6392 H   0  0  0  0  0  0  0  0  0  0  0  0 
    2.9517   -1.9403    0.6301 H   0  0  0  0  0  0  0  0  0  0  0  0 
    5.8266    0.2987   -3.4567 H   0  0  0  0  0  0  0  0  0  0  0  0 
    4.6823    1.5381   -4.0226 H   0  0  0  0  0  0  0  0  0  0  0  0 
    5.3681    0.3617   -5.1710 H   0  0  0  0  0  0  0  0  0  0  0  0 
    5.0082   -2.2176   -3.3942 H   0  0  0  0  0  0  0  0  0  0  0  0 
    4.5991   -2.0615   -5.1150 H   0  0  0  0  0  0  0  0  0  0  0  0 
    3.3541   -2.5702   -3.9486 H   0  0  0  0  0  0  0  0  0  0  0  0 
    3.1965    0.7830    1.6559 H   0  0  0  0  0  0  0  0  0  0  0  0 
    3.0557   -0.2469   -5.6722 H   0  0  0  0  0  0  0  0  0  0  0  0 
  1  7  1  0  0  0  0 
  1 13  1  0  0  0  0 
  2 16  1  0  0  0  0 
  2 15  1  0  0  0  0 
  3 18  1  0  0  0  0 
  3  8  1  0  0  0  0 
  3 17  1  0  0  0  0 
  4 22  1  0  0  0  0 
  4  8  1  0  0  0  0 
  4 20  1  0  0  0  0 
  5  7  1  0  0  0  0 
  6  5  3  0  0  0  0 
  7  2  1  0  0  0  0 
  7  9  1  0  0  0  0 
  8  6  1  0  0  0  0 
  9 23  1  0  0  0  0 
 10  8  1  0  0  0  0 
 11  1  1  0  0  0  0 
 12  1  1  0  0  0  0 
 14  2  1  0  0  0  0 
 19  3  1  0  0  0  0 
 21  4  1  0  0  0  0 
 24 10  1  0  0  0  0 
M  END 
>  <HBA> 
2 
 
>  <HBD> 
2 
 
>  <TPSA> 
40.46 
 
>  <cid> 
8883 
 
>  <dipole> 
0.88 
 
>  <excitation_energy_1> 
5.918 
 
>  <excitation_energy_2> 
6.268 
 
>  <excitation_energy_3> 
6.353 
 
>  <excitation_energy_4> 
6.413 
 
>  <homo_energy> 
-6.659 
 
>  <homo_lumo_gap> 
7.676 
 
>  <logP> 
0.532 
 
>  <lumo_energy> 
1.018 
 
>  <melting_point> 
48.74 
 
>  <molecular_refractivity> 
41.13 
 
>  <oscillator_strength_1> 
0.0117 
 
>  <oscillator_strength_2> 
0.0084 
 
>  <oscillator_strength_3> 
0.0373 
 
>  <oscillator_strength_4> 
0.0153 
 
>  <open_babel_can_smiles> 
CC(C#CC(O)(C)C)(O)C 
 
>  <mulliken_charges> 
24 
1   -0.447188 
2   -0.449198 
3   -0.447532 
4   -0.448855 
5   0.065606 
6   0.065159 
7   0.164544 
8   0.163564 
9   -0.628563 
10   -0.629059 
11   0.157408 
12   0.169363 
13   0.13037 
14   0.154962 
15   0.131491 
16   0.165206 
17   0.157537 
18   0.169248 
19   0.130458 
20   0.155045 
21   0.131438 
22   0.165299 
23   0.386861 
24   0.386836 
 
>  <lowdin_charges> 
24 
1   -0.446847 
2   -0.448904 
3   -0.445604 
4   -0.448941 
5   -0.066558 
6   -0.066426 
7   0.139223 
8   0.139524 
9   -0.452123 
10   -0.452891 
11   0.161853 
12   0.164965 
13   0.142881 
14   0.16062 
15   0.143178 
16   0.163243 
17   0.161633 
18   0.164021 
19   0.142868 
20   0.160444 
21   0.14329 
22   0.163381 
23   0.338506 
24   0.338665 
 
$$$$ 
 
