PCCDB-ID:  12117 
public computational chemistry database (PCCDB) project, http://pccdb.org 
 
 30 31  0  0  0  0  0  0  0  0999 V2000 
    0.4333    0.4784    0.9191 C   0  0  0  0  0  0  0  0  0  0  0  0 
   -0.6531   -4.3175   -0.6244 C   0  0  0  0  0  0  0  0  0  0  0  0 
    3.0887    5.0935    1.3129 C   0  0  0  0  0  0  0  0  0  0  0  0 
   -1.1108   -3.0846   -1.0913 C   0  0  0  0  0  0  0  0  0  0  0  0 
    0.6439   -4.4148   -0.1124 C   0  0  0  0  0  0  0  0  0  0  0  0 
    4.1802    4.2300    1.1960 C   0  0  0  0  0  0  0  0  0  0  0  0 
    1.8198    4.6337    0.9600 C   0  0  0  0  0  0  0  0  0  0  0  0 
   -0.2907   -1.9573   -1.0369 C   0  0  0  0  0  0  0  0  0  0  0  0 
    1.4717   -3.2959   -0.0665 C   0  0  0  0  0  0  0  0  0  0  0  0 
    4.0010    2.9221    0.7549 C   0  0  0  0  0  0  0  0  0  0  0  0 
    1.6329    3.3324    0.4940 C   0  0  0  0  0  0  0  0  0  0  0  0 
    1.6392    0.1646    0.0614 C   0  0  0  0  0  0  0  0  0  0  0  0 
    1.0123   -2.0428   -0.5121 C   0  0  0  0  0  0  0  0  0  0  0  0 
    2.7231    2.4514    0.4042 C   0  0  0  0  0  0  0  0  0  0  0  0 
    1.9023   -0.9616   -0.5060 N   0  0  0  0  0  0  0  0  0  0  0  0 
    2.6176    1.1365   -0.0813 N   0  0  0  0  0  0  0  0  0  0  0  0 
   -0.0005   -0.4542    1.2844 H   0  0  0  0  0  0  0  0  0  0  0  0 
   -0.3447    1.0049    0.3558 H   0  0  0  0  0  0  0  0  0  0  0  0 
    0.7112    1.1067    1.7697 H   0  0  0  0  0  0  0  0  0  0  0  0 
   -1.2942   -5.1936   -0.6682 H   0  0  0  0  0  0  0  0  0  0  0  0 
    3.2269    6.1112    1.6656 H   0  0  0  0  0  0  0  0  0  0  0  0 
   -2.1124   -2.9969   -1.5054 H   0  0  0  0  0  0  0  0  0  0  0  0 
    1.0165   -5.3707    0.2476 H   0  0  0  0  0  0  0  0  0  0  0  0 
    5.1776    4.5707    1.4608 H   0  0  0  0  0  0  0  0  0  0  0  0 
    0.9625    5.2987    1.0248 H   0  0  0  0  0  0  0  0  0  0  0  0 
   -0.6442   -1.0062   -1.4258 H   0  0  0  0  0  0  0  0  0  0  0  0 
    2.4853   -3.3683    0.3170 H   0  0  0  0  0  0  0  0  0  0  0  0 
    4.8513    2.2477    0.6866 H   0  0  0  0  0  0  0  0  0  0  0  0 
    0.6474    3.0150    0.1754 H   0  0  0  0  0  0  0  0  0  0  0  0 
    3.4444    0.7589   -0.5306 H   0  0  0  0  0  0  0  0  0  0  0  0 
  1 17  1  0  0  0  0 
  1 19  1  0  0  0  0 
  2  5  2  0  0  0  0 
  3 21  1  0  0  0  0 
  4  8  2  0  0  0  0 
  4  2  1  0  0  0  0 
  5  9  1  0  0  0  0 
  5 23  1  0  0  0  0 
  6  3  1  0  0  0  0 
  6 24  1  0  0  0  0 
  7 25  1  0  0  0  0 
  7  3  2  0  0  0  0 
  8 13  1  0  0  0  0 
  9 27  1  0  0  0  0 
 10  6  2  0  0  0  0 
 11  7  1  0  0  0  0 
 12  1  1  0  0  0  0 
 13 15  1  0  0  0  0 
 13  9  2  0  0  0  0 
 14 11  2  0  0  0  0 
 14 10  1  0  0  0  0 
 15 12  2  0  0  0  0 
 16 12  1  0  0  0  0 
 16 14  1  0  0  0  0 
 18  1  1  0  0  0  0 
 20  2  1  0  0  0  0 
 22  4  1  0  0  0  0 
 26  8  1  0  0  0  0 
 28 10  1  0  0  0  0 
 29 11  1  0  0  0  0 
 30 16  1  0  0  0  0 
M  END 
>  <HBA> 
2 
 
>  <HBD> 
1 
 
>  <TPSA> 
24.39 
 
>  <cid> 
12117 
 
>  <dipole> 
2.38 
 
>  <excitation_energy_1> 
4.213 
 
>  <excitation_energy_2> 
4.419 
 
>  <excitation_energy_3> 
4.714 
 
>  <excitation_energy_4> 
4.746 
 
>  <homo_energy> 
-5.372 
 
>  <homo_lumo_gap> 
4.874 
 
>  <logP> 
3.922 
 
>  <lumo_energy> 
-0.498 
 
>  <melting_point> 
89.0 
 
>  <molecular_refractivity> 
69.28 
 
>  <oscillator_strength_1> 
0.6172 
 
>  <oscillator_strength_2> 
0.0093 
 
>  <oscillator_strength_3> 
0.0667 
 
>  <oscillator_strength_4> 
0.1417 
 
>  <open_babel_can_smiles> 
C/C(=N\c1ccccc1)/Nc1ccccc1 
 
>  <mulliken_charges> 
30 
1   -0.538587 
2   -0.132863 
3   -0.130606 
4   -0.138301 
5   -0.137717 
6   -0.133336 
7   -0.140768 
8   -0.1581 
9   -0.152555 
10   -0.180275 
11   -0.157782 
12   0.497082 
13   0.255696 
14   0.345356 
15   -0.550357 
16   -0.70695 
17   0.191237 
18   0.177117 
19   0.179816 
20   0.121905 
21   0.130365 
22   0.123993 
23   0.124996 
24   0.134049 
25   0.13325 
26   0.118485 
27   0.124812 
28   0.130772 
29   0.133753 
30   0.335512 
 
>  <lowdin_charges> 
30 
1   -0.469978 
2   -0.176357 
3   -0.16979 
4   -0.153915 
5   -0.154021 
6   -0.145726 
7   -0.148588 
8   -0.189451 
9   -0.173599 
10   -0.186202 
11   -0.187278 
12   0.118859 
13   0.045416 
14   0.054488 
15   -0.219843 
16   -0.237641 
17   0.180647 
18   0.170621 
19   0.173822 
20   0.155299 
21   0.158144 
22   0.153922 
23   0.155472 
24   0.159806 
25   0.16039 
26   0.153749 
27   0.158271 
28   0.15917 
29   0.162002 
30   0.29231 
 
$$$$ 
 
