PCCDB-ID:  19137 
public computational chemistry database (PCCDB) project, http://pccdb.org 
 
 29 29  0  0  0  0  0  0  0  0999 V2000 
   -1.2076   -0.1873   -0.6997 C   0  0  0  0  0  0  0  0  0  0  0  0 
    5.5650    5.1804   -7.7868 C   0  0  0  0  0  0  0  0  0  0  0  0 
    0.8678    0.9119   -1.7910 C   0  0  0  0  0  0  0  0  0  0  0  0 
    2.3395    1.3069   -1.5913 C   0  0  0  0  0  0  0  0  0  0  0  0 
    3.5827    1.2236   -3.8019 C   0  0  0  0  0  0  0  0  0  0  0  0 
    2.8131    3.3561   -3.0113 C   0  0  0  0  0  0  0  0  0  0  0  0 
    4.0987    1.8303   -4.9457 C   0  0  0  0  0  0  0  0  0  0  0  0 
    3.3185    3.9822   -4.1505 C   0  0  0  0  0  0  0  0  0  0  0  0 
    0.2590    0.1978   -0.5884 C   0  0  0  0  0  0  0  0  0  0  0  0 
    5.1614    4.8892   -6.3615 C   0  0  0  0  0  0  0  0  0  0  0  0 
    2.9307    1.9737   -2.8145 C   0  0  0  0  0  0  0  0  0  0  0  0 
    3.9642    3.2067   -5.1129 C   0  0  0  0  0  0  0  0  0  0  0  0 
    0.9112   -0.0524    0.4077 O   0  0  0  0  0  0  0  0  0  0  0  0 
    5.4333    5.5614   -5.3980 O   0  0  0  0  0  0  0  0  0  0  0  0 
    4.4392    3.7250   -6.3210 O   0  0  0  0  0  0  0  0  0  0  0  0 
   -1.3741   -0.8296   -1.5735 H   0  0  0  0  0  0  0  0  0  0  0  0 
   -1.8289    0.7064   -0.8390 H   0  0  0  0  0  0  0  0  0  0  0  0 
   -1.5217   -0.7113    0.2052 H   0  0  0  0  0  0  0  0  0  0  0  0 
    6.0678    6.1470   -7.8300 H   0  0  0  0  0  0  0  0  0  0  0  0 
    4.6858    5.1823   -8.4386 H   0  0  0  0  0  0  0  0  0  0  0  0 
    6.2391    4.3972   -8.1501 H   0  0  0  0  0  0  0  0  0  0  0  0 
    0.7583    0.2596   -2.6703 H   0  0  0  0  0  0  0  0  0  0  0  0 
    0.2549    1.7966   -2.0178 H   0  0  0  0  0  0  0  0  0  0  0  0 
    2.9118    0.4100   -1.3313 H   0  0  0  0  0  0  0  0  0  0  0  0 
    2.4114    1.9716   -0.7232 H   0  0  0  0  0  0  0  0  0  0  0  0 
    3.6953    0.1493   -3.6735 H   0  0  0  0  0  0  0  0  0  0  0  0 
    2.3198    3.9631   -2.2552 H   0  0  0  0  0  0  0  0  0  0  0  0 
    4.6060    1.2509   -5.7108 H   0  0  0  0  0  0  0  0  0  0  0  0 
    3.2269    5.0531   -4.2785 H   0  0  0  0  0  0  0  0  0  0  0  0 
  1  9  1  0  0  0  0 
  1 18  1  0  0  0  0 
  2 10  1  0  0  0  0 
  3  4  1  0  0  0  0 
  3  9  1  0  0  0  0 
  4 24  1  0  0  0  0 
  4 25  1  0  0  0  0 
  5 26  1  0  0  0  0 
  5 11  2  0  0  0  0 
  6 11  1  0  0  0  0 
  6 27  1  0  0  0  0 
  7  5  1  0  0  0  0 
  8  6  2  0  0  0  0 
  9 13  2  0  0  0  0 
 10 15  1  0  0  0  0 
 10 14  2  0  0  0  0 
 11  4  1  0  0  0  0 
 12  7  2  0  0  0  0 
 12  8  1  0  0  0  0 
 15 12  1  0  0  0  0 
 16  1  1  0  0  0  0 
 17  1  1  0  0  0  0 
 19  2  1  0  0  0  0 
 20  2  1  0  0  0  0 
 21  2  1  0  0  0  0 
 22  3  1  0  0  0  0 
 23  3  1  0  0  0  0 
 28  7  1  0  0  0  0 
 29  8  1  0  0  0  0 
M  END 
>  <HBA> 
3 
 
>  <HBD> 
0 
 
>  <TPSA> 
43.37 
 
>  <cid> 
19137 
 
>  <dipole> 
3.84 
 
>  <excitation_energy_1> 
4.385 
 
>  <excitation_energy_2> 
5.094 
 
>  <excitation_energy_3> 
5.312 
 
>  <excitation_energy_4> 
5.381 
 
>  <homo_energy> 
-6.291 
 
>  <homo_lumo_gap> 
5.872 
 
>  <logP> 
2.134 
 
>  <lumo_energy> 
-0.419 
 
>  <melting_point> 
53.38 
 
>  <molecular_refractivity> 
57.53 
 
>  <oscillator_strength_1> 
0.0005 
 
>  <oscillator_strength_2> 
0.0048 
 
>  <oscillator_strength_3> 
0.2203 
 
>  <oscillator_strength_4> 
0.0032 
 
>  <open_babel_can_smiles> 
CC(=O)CCc1ccc(cc1)OC(=O)C 
 
>  <mulliken_charges> 
29 
1   -0.528639 
2   -0.525405 
3   -0.353183 
4   -0.347414 
5   -0.193875 
6   -0.199219 
7   -0.162507 
8   -0.136996 
9   0.456599 
10   0.592124 
11   0.1764 
12   0.342757 
13   -0.434715 
14   -0.44415 
15   -0.515855 
16   0.167732 
17   0.169129 
18   0.180986 
19   0.185197 
20   0.183993 
21   0.18615 
22   0.162842 
23   0.161181 
24   0.162089 
25   0.160974 
26   0.128825 
27   0.129665 
28   0.13905 
29   0.156264 
 
>  <lowdin_charges> 
29 
1   -0.477313 
2   -0.464812 
3   -0.311163 
4   -0.268934 
5   -0.160256 
6   -0.162056 
7   -0.17167 
8   -0.165197 
9   0.16706 
10   0.212107 
11   -0.006048 
12   0.09757 
13   -0.23472 
14   -0.241454 
15   -0.16852 
16   0.169513 
17   0.170351 
18   0.173949 
19   0.176875 
20   0.179186 
21   0.181541 
22   0.163457 
23   0.162612 
24   0.160863 
25   0.160335 
26   0.155705 
27   0.159088 
28   0.16817 
29   0.17376 
 
$$$$ 
 
