PCCDB-ID:  26732 
public computational chemistry database (PCCDB) project, http://pccdb.org 
 
 27 28  0  0  0  0  0  0  0  0999 V2000 
    0.9047   -0.4012   -0.7026 C   0  0  0  0  0  0  0  0  0  0  0  0 
    4.6118   -1.4727    2.1661 C   0  0  0  0  0  0  0  0  0  0  0  0 
    3.1853   -3.2664    1.4097 C   0  0  0  0  0  0  0  0  0  0  0  0 
    3.8470   -0.5621    1.4530 C   0  0  0  0  0  0  0  0  0  0  0  0 
    2.3990   -2.3627    0.7041 C   0  0  0  0  0  0  0  0  0  0  0  0 
    5.7065   -2.5307    4.9494 C   0  0  0  0  0  0  0  0  0  0  0  0 
    7.1899   -4.2468    4.1791 C   0  0  0  0  0  0  0  0  0  0  0  0 
    6.5906   -2.3257    6.0110 C   0  0  0  0  0  0  0  0  0  0  0  0 
    8.0116   -3.9480    5.2629 C   0  0  0  0  0  0  0  0  0  0  0  0 
    4.2907   -2.8439    2.1636 C   0  0  0  0  0  0  0  0  0  0  0  0 
    6.0112   -3.5126    3.9994 C   0  0  0  0  0  0  0  0  0  0  0  0 
    2.7285   -0.9979    0.7239 C   0  0  0  0  0  0  0  0  0  0  0  0 
    5.0992   -3.8844    2.8567 C   0  0  0  0  0  0  0  0  0  0  0  0 
    7.7313   -3.0046    6.1739 N   0  0  0  0  0  0  0  0  0  0  0  0 
    5.0386   -5.0612    2.5156 O   0  0  0  0  0  0  0  0  0  0  0  0 
    2.0379   -0.0282    0.0714 O   0  0  0  0  0  0  0  0  0  0  0  0 
    0.5206    0.5255   -1.1316 H   0  0  0  0  0  0  0  0  0  0  0  0 
    0.1281   -0.8634   -0.0802 H   0  0  0  0  0  0  0  0  0  0  0  0 
    1.1805   -1.0901   -1.5109 H   0  0  0  0  0  0  0  0  0  0  0  0 
    5.4835   -1.1183    2.7062 H   0  0  0  0  0  0  0  0  0  0  0  0 
    2.9526   -4.3262    1.3888 H   0  0  0  0  0  0  0  0  0  0  0  0 
    4.0951    0.4943    1.4383 H   0  0  0  0  0  0  0  0  0  0  0  0 
    1.5443   -2.7219    0.1427 H   0  0  0  0  0  0  0  0  0  0  0  0 
    4.7904   -1.9526    4.8862 H   0  0  0  0  0  0  0  0  0  0  0  0 
    7.4446   -5.0361    3.4798 H   0  0  0  0  0  0  0  0  0  0  0  0 
    6.3673   -1.5766    6.7691 H   0  0  0  0  0  0  0  0  0  0  0  0 
    8.9407   -4.4948    5.4139 H   0  0  0  0  0  0  0  0  0  0  0  0 
  1 18  1  0  0  0  0 
  1 16  1  0  0  0  0 
  2 20  1  0  0  0  0 
  3 10  2  0  0  0  0 
  4  2  2  0  0  0  0 
  5 12  2  0  0  0  0 
  5  3  1  0  0  0  0 
  6  8  2  0  0  0  0 
  7  9  1  0  0  0  0 
  8 14  1  0  0  0  0 
  8 26  1  0  0  0  0 
  9 27  1  0  0  0  0 
  9 14  2  0  0  0  0 
 10  2  1  0  0  0  0 
 10 13  1  0  0  0  0 
 11  7  2  0  0  0  0 
 11  6  1  0  0  0  0 
 12  4  1  0  0  0  0 
 13 11  1  0  0  0  0 
 15 13  2  0  0  0  0 
 16 12  1  0  0  0  0 
 17  1  1  0  0  0  0 
 19  1  1  0  0  0  0 
 21  3  1  0  0  0  0 
 22  4  1  0  0  0  0 
 23  5  1  0  0  0  0 
 24  6  1  0  0  0  0 
 25  7  1  0  0  0  0 
M  END 
>  <HBA> 
3 
 
>  <HBD> 
0 
 
>  <TPSA> 
39.19 
 
>  <cid> 
26732 
 
>  <dipole> 
4.57 
 
>  <excitation_energy_1> 
3.528 
 
>  <excitation_energy_2> 
4.027 
 
>  <excitation_energy_3> 
4.173 
 
>  <excitation_energy_4> 
4.525 
 
>  <homo_energy> 
-6.376 
 
>  <homo_lumo_gap> 
4.474 
 
>  <logP> 
2.321 
 
>  <lumo_energy> 
-1.902 
 
>  <melting_point> 
85.37 
 
>  <molecular_refractivity> 
60.6 
 
>  <oscillator_strength_1> 
0.0036 
 
>  <oscillator_strength_2> 
0.2429 
 
>  <oscillator_strength_3> 
0.0021 
 
>  <oscillator_strength_4> 
0.0143 
 
>  <open_babel_can_smiles> 
COc1ccc(cc1)C(=O)c1ccncc1 
 
>  <mulliken_charges> 
27 
1   -0.221154 
2   -0.182518 
3   -0.162185 
4   -0.180773 
5   -0.197874 
6   -0.183591 
7   -0.157397 
8   0.034984 
9   0.034109 
10   0.070673 
11   0.090343 
12   0.388425 
13   0.323841 
14   -0.400716 
15   -0.465594 
16   -0.499185 
17   0.17699 
18   0.158907 
19   0.159971 
20   0.152227 
21   0.165377 
22   0.147242 
23   0.141445 
24   0.152452 
25   0.161669 
26   0.145399 
27   0.146932 
 
>  <lowdin_charges> 
27 
1   -0.279674 
2   -0.140117 
3   -0.112456 
4   -0.183136 
5   -0.210864 
6   -0.175169 
7   -0.152884 
8   -0.091525 
9   -0.088958 
10   -0.068879 
11   -0.015631 
12   0.11587 
13   0.154343 
14   -0.139915 
15   -0.245489 
16   -0.18547 
17   0.167477 
18   0.150685 
19   0.150682 
20   0.169809 
21   0.176032 
22   0.169513 
23   0.167281 
24   0.170639 
25   0.178765 
26   0.159411 
27   0.159658 
 
$$$$ 
 
