PCCDB-ID:  70209 
public computational chemistry database (PCCDB) project, http://pccdb.org 
 
 28 27  0  0  0  0  0  0  0  0999 V2000 
    0.4408    1.0418    0.5780 C   0  0  0  0  0  0  0  0  0  0  0  0 
    7.9423    4.2722   -0.7361 C   0  0  0  0  0  0  0  0  0  0  0  0 
    8.6015    2.6122   -2.5438 C   0  0  0  0  0  0  0  0  0  0  0  0 
    1.9499    0.7800    0.6121 C   0  0  0  0  0  0  0  0  0  0  0  0 
    2.7535    1.7584   -0.2544 C   0  0  0  0  0  0  0  0  0  0  0  0 
    4.2644    1.4991   -0.2203 C   0  0  0  0  0  0  0  0  0  0  0  0 
    5.0592    2.4714   -1.0927 C   0  0  0  0  0  0  0  0  0  0  0  0 
    7.4355    3.2739   -1.7990 C   0  0  0  0  0  0  0  0  0  0  0  0 
    6.5623    2.2241   -1.0986 C   0  0  0  0  0  0  0  0  0  0  0  0 
    7.0578    1.2527   -0.5563 O   0  0  0  0  0  0  0  0  0  0  0  0 
   -0.1039    0.3260    1.2041 H   0  0  0  0  0  0  0  0  0  0  0  0 
    0.0467    0.9588   -0.4425 H   0  0  0  0  0  0  0  0  0  0  0  0 
    0.2046    2.0495    0.9419 H   0  0  0  0  0  0  0  0  0  0  0  0 
    8.5490    5.0539   -1.2067 H   0  0  0  0  0  0  0  0  0  0  0  0 
    8.5622    3.7552    0.0045 H   0  0  0  0  0  0  0  0  0  0  0  0 
    7.1167    4.7619   -0.2065 H   0  0  0  0  0  0  0  0  0  0  0  0 
    9.2479    3.3701   -3.0002 H   0  0  0  0  0  0  0  0  0  0  0  0 
    8.2430    1.9487   -3.3389 H   0  0  0  0  0  0  0  0  0  0  0  0 
    9.1988    2.0109   -1.8523 H   0  0  0  0  0  0  0  0  0  0  0  0 
    2.1517   -0.2474    0.2776 H   0  0  0  0  0  0  0  0  0  0  0  0 
    2.3090    0.8371    1.6493 H   0  0  0  0  0  0  0  0  0  0  0  0 
    2.5487    2.7875    0.0782 H   0  0  0  0  0  0  0  0  0  0  0  0 
    2.3941    1.7000   -1.2930 H   0  0  0  0  0  0  0  0  0  0  0  0 
    4.4773    0.4738   -0.5468 H   0  0  0  0  0  0  0  0  0  0  0  0 
    4.6311    1.5621    0.8125 H   0  0  0  0  0  0  0  0  0  0  0  0 
    4.8803    3.5151   -0.7915 H   0  0  0  0  0  0  0  0  0  0  0  0 
    4.7199    2.4211   -2.1401 H   0  0  0  0  0  0  0  0  0  0  0  0 
    6.8078    3.8250   -2.5130 H   0  0  0  0  0  0  0  0  0  0  0  0 
  1  4  1  0  0  0  0 
  1 13  1  0  0  0  0 
  1 11  1  0  0  0  0 
  2 16  1  0  0  0  0 
  2 15  1  0  0  0  0 
  3 19  1  0  0  0  0 
  3  8  1  0  0  0  0 
  4 21  1  0  0  0  0 
  5  6  1  0  0  0  0 
  5 22  1  0  0  0  0 
  5  4  1  0  0  0  0 
  6 25  1  0  0  0  0 
  7 26  1  0  0  0  0 
  7  6  1  0  0  0  0 
  8  9  1  0  0  0  0 
  8  2  1  0  0  0  0 
  9  7  1  0  0  0  0 
  9 10  2  0  0  0  0 
 12  1  1  0  0  0  0 
 14  2  1  0  0  0  0 
 17  3  1  0  0  0  0 
 18  3  1  0  0  0  0 
 20  4  1  0  0  0  0 
 23  5  1  0  0  0  0 
 24  6  1  0  0  0  0 
 27  7  1  0  0  0  0 
 28  8  1  0  0  0  0 
M  END 
>  <HBA> 
1 
 
>  <HBD> 
0 
 
>  <TPSA> 
17.07 
 
>  <cid> 
70209 
 
>  <dipole> 
2.42 
 
>  <excitation_energy_1> 
4.357 
 
>  <excitation_energy_2> 
5.95 
 
>  <excitation_energy_3> 
6.633 
 
>  <excitation_energy_4> 
6.684 
 
>  <homo_energy> 
-6.465 
 
>  <homo_lumo_gap> 
6.234 
 
>  <logP> 
2.792 
 
>  <lumo_energy> 
-0.231 
 
>  <melting_point> 
-7.16 
 
>  <molecular_refractivity> 
45.58 
 
>  <oscillator_strength_1> 
0.0006 
 
>  <oscillator_strength_2> 
0.0029 
 
>  <oscillator_strength_3> 
0.003 
 
>  <oscillator_strength_4> 
0.0057 
 
>  <open_babel_can_smiles> 
CCCCCC(=O)C(C)C 
 
>  <mulliken_charges> 
28 
1   -0.44168 
2   -0.451217 
3   -0.441239 
4   -0.247007 
5   -0.249319 
6   -0.245419 
7   -0.367278 
8   -0.15091 
9   0.462361 
10   -0.459199 
11   0.142848 
12   0.140721 
13   0.140455 
14   0.152241 
15   0.165672 
16   0.145032 
17   0.139109 
18   0.145015 
19   0.170292 
20   0.133261 
21   0.132624 
22   0.124113 
23   0.12465 
24   0.150246 
25   0.143549 
26   0.154026 
27   0.159077 
28   0.127976 
 
>  <lowdin_charges> 
28 
1   -0.444516 
2   -0.441428 
3   -0.44358 
4   -0.26953 
5   -0.272956 
6   -0.269625 
7   -0.307317 
8   -0.153917 
9   0.164394 
10   -0.240606 
11   0.151189 
12   0.145111 
13   0.145124 
14   0.155604 
15   0.160197 
16   0.150167 
17   0.150133 
18   0.152227 
19   0.164133 
20   0.139522 
21   0.139083 
22   0.13462 
23   0.13489 
24   0.150583 
25   0.147122 
26   0.155809 
27   0.159865 
28   0.143701 
 
$$$$ 
 
