PCCDB-ID:  8635 
public computational chemistry database (PCCDB) project, http://pccdb.org 
 
 20 20  0  0  0  0  0  0  0  0999 V2000 
    5.0558    1.1033    0.4809 C   0  0  0  0  0  0  0  0  0  0  0  0 
    1.1338    1.6783    4.3505 C   0  0  0  0  0  0  0  0  0  0  0  0 
    0.4345    0.5609    4.8325 C   0  0  0  0  0  0  0  0  0  0  0  0 
    2.1178    1.4892    3.3944 C   0  0  0  0  0  0  0  0  0  0  0  0 
    0.7236   -0.7109    4.3695 C   0  0  0  0  0  0  0  0  0  0  0  0 
    2.4327    0.2084    2.8978 C   0  0  0  0  0  0  0  0  0  0  0  0 
    1.7292   -0.9274    3.3986 C   0  0  0  0  0  0  0  0  0  0  0  0 
    3.4580    0.0420    1.8527 C   0  0  0  0  0  0  0  0  0  0  0  0 
    2.0229   -2.2017    2.9976 N   0  0  0  0  0  0  0  0  0  0  0  0 
    3.7690   -1.0182    1.3177 O   0  0  0  0  0  0  0  0  0  0  0  0 
    4.0564    1.2061    1.5038 O   0  0  0  0  0  0  0  0  0  0  0  0 
    5.4284    2.1182    0.3367 H   0  0  0  0  0  0  0  0  0  0  0  0 
    4.6228    0.7186   -0.4465 H   0  0  0  0  0  0  0  0  0  0  0  0 
    5.8648    0.4386    0.7958 H   0  0  0  0  0  0  0  0  0  0  0  0 
    0.9064    2.6739    4.7180 H   0  0  0  0  0  0  0  0  0  0  0  0 
   -0.3446    0.6886    5.5801 H   0  0  0  0  0  0  0  0  0  0  0  0 
    2.6662    2.3374    3.0011 H   0  0  0  0  0  0  0  0  0  0  0  0 
    0.1815   -1.5708    4.7565 H   0  0  0  0  0  0  0  0  0  0  0  0 
    1.3546   -2.9314    3.1937 H   0  0  0  0  0  0  0  0  0  0  0  0 
    2.6332   -2.3036    2.1951 H   0  0  0  0  0  0  0  0  0  0  0  0 
  1 14  1  0  0  0  0 
  1 11  1  0  0  0  0 
  2 15  1  0  0  0  0 
  2  3  2  0  0  0  0 
  3 16  1  0  0  0  0 
  4  2  1  0  0  0  0 
  5 18  1  0  0  0  0 
  5  3  1  0  0  0  0 
  6  4  2  0  0  0  0 
  6  7  1  0  0  0  0 
  7  5  2  0  0  0  0 
  8  6  1  0  0  0  0 
  9 19  1  0  0  0  0 
  9  7  1  0  0  0  0 
 10  8  2  0  0  0  0 
 11  8  1  0  0  0  0 
 12  1  1  0  0  0  0 
 13  1  1  0  0  0  0 
 17  4  1  0  0  0  0 
 20  9  1  0  0  0  0 
M  END 
>  <HBA> 
3 
 
>  <HBD> 
1 
 
>  <TPSA> 
52.32 
 
>  <cid> 
8635 
 
>  <dipole> 
0.66 
 
>  <excitation_energy_1> 
3.908 
 
>  <excitation_energy_2> 
5.022 
 
>  <excitation_energy_3> 
5.083 
 
>  <excitation_energy_4> 
5.171 
 
>  <homo_energy> 
-5.464 
 
>  <homo_lumo_gap> 
4.514 
 
>  <logP> 
1.637 
 
>  <lumo_energy> 
-0.95 
 
>  <melting_point> 
79.42 
 
>  <molecular_refractivity> 
42.13 
 
>  <oscillator_strength_1> 
0.1101 
 
>  <oscillator_strength_2> 
0.0047 
 
>  <oscillator_strength_3> 
0.0 
 
>  <oscillator_strength_4> 
0.0432 
 
>  <open_babel_can_smiles> 
COC(=O)c1ccccc1N 
 
>  <mulliken_charges> 
20 
1   -0.212004 
2   -0.146352 
3   -0.124076 
4   -0.175456 
5   -0.18191 
6   0.014989 
7   0.315669 
8   0.610501 
9   -0.823824 
10   -0.537162 
11   -0.468247 
12   0.162525 
13   0.168123 
14   0.169682 
15   0.125607 
16   0.13118 
17   0.153829 
18   0.119634 
19   0.323579 
20   0.373714 
 
>  <lowdin_charges> 
20 
1   -0.276845 
2   -0.196923 
3   -0.127508 
4   -0.128147 
5   -0.206957 
6   -0.098733 
7   0.091066 
8   0.20476 
9   -0.470359 
10   -0.303144 
11   -0.190533 
12   0.15855 
13   0.158281 
14   0.159783 
15   0.157068 
16   0.159347 
17   0.172189 
18   0.15474 
19   0.280941 
20   0.302423 
 
$$$$ 
 
