PCCDB-ID:  57940 
public computational chemistry database (PCCDB) project, http://pccdb.org 
 
 35 34  0  0  1  0  0  0  0  0999 V2000 
    1.7028    0.2668   -3.1886 C   0  0  0  0  0  0  0  0  0  0  0  0 
    4.1441    6.5625    0.2019 C   0  0  0  0  0  0  0  0  0  0  0  0 
    5.6256    6.7365   -1.8506 C   0  0  0  0  0  0  0  0  0  0  0  0 
    3.9954    0.0683    0.7080 C   0  0  0  0  0  0  0  0  0  0  0  0 
    0.9417    0.3732   -0.1717 C   0  0  0  0  0  0  0  0  0  0  0  0 
    2.5727    0.0816   -1.9414 C   0  0  0  0  0  0  0  0  0  0  0  0 
    3.4194    3.6576   -0.7896 C   0  0  0  0  0  0  0  0  0  0  0  0 
    4.3394    4.6521   -1.4443 C   0  0  0  0  0  0  0  0  0  0  0  0 
    4.1361    2.3467   -0.4150 C   0  0  0  0  0  0  0  0  0  0  0  0 
    4.6696    5.8897   -1.0430 C   0  0  0  0  0  0  0  0  0  0  0  0 
    3.1956    1.2648    0.1524 C   0  0  1  0  0  0  0  0  0  0  0  0 
    2.1345    0.9080   -0.8131 N   0  0  0  0  0  0  0  0  0  0  0  0 
    2.1031   -0.3246   -4.0204 H   0  0  0  0  0  0  0  0  0  0  0  0 
    1.6824    1.3200   -3.4876 H   0  0  0  0  0  0  0  0  0  0  0  0 
    0.6694   -0.0573   -3.0248 H   0  0  0  0  0  0  0  0  0  0  0  0 
    4.9723    6.8628    0.8591 H   0  0  0  0  0  0  0  0  0  0  0  0 
    3.4681    5.9303    0.7820 H   0  0  0  0  0  0  0  0  0  0  0  0 
    3.6036    7.4849   -0.0537 H   0  0  0  0  0  0  0  0  0  0  0  0 
    5.1526    7.6767   -2.1690 H   0  0  0  0  0  0  0  0  0  0  0  0 
    5.9774    6.2156   -2.7470 H   0  0  0  0  0  0  0  0  0  0  0  0 
    6.5054    7.0199   -1.2552 H   0  0  0  0  0  0  0  0  0  0  0  0 
    4.6505    0.3924    1.5248 H   0  0  0  0  0  0  0  0  0  0  0  0 
    4.6287   -0.3867   -0.0625 H   0  0  0  0  0  0  0  0  0  0  0  0 
    3.3328   -0.7099    1.1027 H   0  0  0  0  0  0  0  0  0  0  0  0 
    0.1304    0.2846   -0.9008 H   0  0  0  0  0  0  0  0  0  0  0  0 
    0.6047    1.0599    0.6123 H   0  0  0  0  0  0  0  0  0  0  0  0 
    1.0865   -0.6254    0.2858 H   0  0  0  0  0  0  0  0  0  0  0  0 
    3.5990    0.3655   -2.1950 H   0  0  0  0  0  0  0  0  0  0  0  0 
    2.6043   -0.9923   -1.6736 H   0  0  0  0  0  0  0  0  0  0  0  0 
    2.5973    3.4061   -1.4731 H   0  0  0  0  0  0  0  0  0  0  0  0 
    2.9505    4.0778    0.1081 H   0  0  0  0  0  0  0  0  0  0  0  0 
    4.7993    4.2930   -2.3681 H   0  0  0  0  0  0  0  0  0  0  0  0 
    4.9104    2.5575    0.3351 H   0  0  0  0  0  0  0  0  0  0  0  0 
    4.6730    1.9578   -1.2919 H   0  0  0  0  0  0  0  0  0  0  0  0 
    2.6651    1.7235    0.9988 H   0  0  0  0  0  0  0  0  0  0  0  0 
  1 15  1  0  0  0  0 
  1  6  1  0  0  0  0 
  2 17  1  0  0  0  0 
  2 16  1  0  0  0  0 
  3 21  1  0  0  0  0 
  3 10  1  0  0  0  0 
  4 24  1  0  0  0  0 
  4 22  1  0  0  0  0 
  5 27  1  0  0  0  0 
  5 26  1  0  0  0  0 
  6 29  1  0  0  0  0 
  6 12  1  0  0  0  0 
  7  9  1  0  0  0  0 
  7 31  1  0  0  0  0 
  8 10  2  0  0  0  0 
  8  7  1  0  0  0  0 
  9 11  1  0  0  0  0 
  9 33  1  0  0  0  0 
 10  2  1  0  0  0  0 
 11  4  1  0  0  0  0 
 11 35  1  1  0  0  0 
 12  5  1  0  0  0  0 
 12 11  1  0  0  0  0 
 13  1  1  0  0  0  0 
 14  1  1  0  0  0  0 
 18  2  1  0  0  0  0 
 19  3  1  0  0  0  0 
 20  3  1  0  0  0  0 
 23  4  1  0  0  0  0 
 25  5  1  0  0  0  0 
 28  6  1  0  0  0  0 
 30  7  1  0  0  0  0 
 32  8  1  0  0  0  0 
 34  9  1  0  0  0  0 
M  END 
>  <HBA> 
1 
 
>  <HBD> 
0 
 
>  <TPSA> 
3.24 
 
>  <cid> 
57940 
 
>  <dipole> 
0.66 
 
>  <excitation_energy_1> 
4.955 
 
>  <excitation_energy_2> 
5.274 
 
>  <excitation_energy_3> 
5.34 
 
>  <excitation_energy_4> 
5.378 
 
>  <homo_energy> 
-5.412 
 
>  <homo_lumo_gap> 
6.493 
 
>  <logP> 
3.073 
 
>  <lumo_energy> 
1.08 
 
>  <melting_point> 
-14.04 
 
>  <molecular_refractivity> 
57.41 
 
>  <oscillator_strength_1> 
0.0067 
 
>  <oscillator_strength_2> 
0.0075 
 
>  <oscillator_strength_3> 
0.031 
 
>  <oscillator_strength_4> 
0.0113 
 
>  <open_babel_can_smiles> 
CCN([C@H](CCC=C(C)C)C)C 
 
>  <mulliken_charges> 
35 
1   -0.443382 
2   -0.512102 
3   -0.505477 
4   -0.457156 
5   -0.302596 
6   -0.119702 
7   -0.297192 
8   -0.161928 
9   -0.25912 
10   0.186113 
11   0.043366 
12   -0.370815 
13   0.137943 
14   0.154221 
15   0.144911 
16   0.148183 
17   0.15316 
18   0.150024 
19   0.146765 
20   0.149046 
21   0.146153 
22   0.142078 
23   0.143299 
24   0.14528 
25   0.15003 
26   0.14668 
27   0.117171 
28   0.139385 
29   0.113389 
30   0.159418 
31   0.127476 
32   0.105042 
33   0.132337 
34   0.128075 
35   0.119927 
 
>  <lowdin_charges> 
35 
1   -0.447639 
2   -0.446631 
3   -0.440024 
4   -0.46419 
5   -0.358405 
6   -0.195116 
7   -0.277995 
8   -0.188892 
9   -0.280367 
10   -0.015533 
11   -0.061922 
12   -0.186576 
13   0.150294 
14   0.151905 
15   0.146336 
16   0.153701 
17   0.15602 
18   0.154025 
19   0.150898 
20   0.153513 
21   0.151027 
22   0.152585 
23   0.149567 
24   0.150909 
25   0.150122 
26   0.149918 
27   0.117793 
28   0.143537 
29   0.117053 
30   0.157256 
31   0.142112 
32   0.142247 
33   0.144943 
34   0.138732 
35   0.138797 
 
$$$$ 
 
