PCCDB-ID:  61275 
public computational chemistry database (PCCDB) project, http://pccdb.org 
 
 27 27  0  0  1  0  0  0  0  0999 V2000 
    0.8268    0.3329   -0.2968 C   0  0  0  0  0  0  0  0  0  0  0  0 
    2.0474    2.4975    0.2687 C   0  0  0  0  0  0  0  0  0  0  0  0 
    6.8215   -2.2237   -0.2044 C   0  0  0  0  0  0  0  0  0  0  0  0 
    6.0297   -0.2228   -1.4787 C   0  0  0  0  0  0  0  0  0  0  0  0 
    5.3920    1.1353   -1.5857 C   0  0  0  0  0  0  0  0  0  0  0  0 
    3.2501    0.2888    0.2524 C   0  0  0  0  0  0  0  0  0  0  0  0 
    5.6239   -0.2557    0.9544 C   0  0  0  0  0  0  0  0  0  0  0  0 
    2.1250    1.0010    0.0862 C   0  0  0  0  0  0  0  0  0  0  0  0 
    6.1549   -0.8791   -0.3196 C   0  0  0  0  0  0  0  0  0  0  0  0 
    4.6022    0.8513    0.6530 C   0  0  1  0  0  0  0  0  0  0  0  0 
    5.1570    1.7497   -0.3262 O   0  0  0  0  0  0  0  0  0  0  0  0 
    0.4364    0.7398   -1.2399 H   0  0  0  0  0  0  0  0  0  0  0  0 
    0.0527    0.5142    0.4623 H   0  0  0  0  0  0  0  0  0  0  0  0 
    0.9417   -0.7493   -0.4133 H   0  0  0  0  0  0  0  0  0  0  0  0 
    1.3640    2.7542    1.0907 H   0  0  0  0  0  0  0  0  0  0  0  0 
    1.6359    2.9703   -0.6334 H   0  0  0  0  0  0  0  0  0  0  0  0 
    3.0215    2.9501    0.4612 H   0  0  0  0  0  0  0  0  0  0  0  0 
    7.2048   -2.5705   -1.1696 H   0  0  0  0  0  0  0  0  0  0  0  0 
    6.1247   -2.9821    0.1797 H   0  0  0  0  0  0  0  0  0  0  0  0 
    7.6633   -2.1891    0.5018 H   0  0  0  0  0  0  0  0  0  0  0  0 
    6.3876   -0.6648   -2.4083 H   0  0  0  0  0  0  0  0  0  0  0  0 
    4.4535    1.0645   -2.1638 H   0  0  0  0  0  0  0  0  0  0  0  0 
    6.0494    1.8262   -2.1289 H   0  0  0  0  0  0  0  0  0  0  0  0 
    3.2091   -0.7870    0.0818 H   0  0  0  0  0  0  0  0  0  0  0  0 
    6.4566    0.1634    1.5373 H   0  0  0  0  0  0  0  0  0  0  0  0 
    5.1610   -1.0239    1.5905 H   0  0  0  0  0  0  0  0  0  0  0  0 
    4.4878    1.4856    1.5388 H   0  0  0  0  0  0  0  0  0  0  0  0 
  1  8  1  0  0  0  0 
  1 13  1  0  0  0  0 
  2 17  1  0  0  0  0 
  2 15  1  0  0  0  0 
  3 19  1  0  0  0  0 
  3 20  1  0  0  0  0 
  4  9  2  0  0  0  0 
  5  4  1  0  0  0  0 
  5 11  1  0  0  0  0 
  6 10  1  0  0  0  0 
  7 25  1  0  0  0  0 
  7 26  1  0  0  0  0 
  8  6  2  0  0  0  0 
  8  2  1  0  0  0  0 
  9  3  1  0  0  0  0 
  9  7  1  0  0  0  0 
 10  7  1  0  0  0  0 
 10 27  1  1  0  0  0 
 11 10  1  0  0  0  0 
 12  1  1  0  0  0  0 
 14  1  1  0  0  0  0 
 16  2  1  0  0  0  0 
 18  3  1  0  0  0  0 
 21  4  1  0  0  0  0 
 22  5  1  0  0  0  0 
 23  5  1  0  0  0  0 
 24  6  1  0  0  0  0 
M  END 
>  <HBA> 
1 
 
>  <HBD> 
0 
 
>  <TPSA> 
9.23 
 
>  <cid> 
61275 
 
>  <dipole> 
1.21 
 
>  <excitation_energy_1> 
5.632 
 
>  <excitation_energy_2> 
5.79 
 
>  <excitation_energy_3> 
5.864 
 
>  <excitation_energy_4> 
5.966 
 
>  <homo_energy> 
-6.163 
 
>  <homo_lumo_gap> 
6.656 
 
>  <logP> 
2.688 
 
>  <lumo_energy> 
0.493 
 
>  <melting_point> 
10.83 
 
>  <molecular_refractivity> 
48.21 
 
>  <oscillator_strength_1> 
0.0357 
 
>  <oscillator_strength_2> 
0.0251 
 
>  <oscillator_strength_3> 
0.0034 
 
>  <oscillator_strength_4> 
0.0085 
 
>  <open_babel_can_smiles> 
CC(=C[C@@H]1OCC=C(C1)C)C 
 
>  <mulliken_charges> 
27 
1   -0.506787 
2   -0.517517 
3   -0.513583 
4   -0.19329 
5   -0.048303 
6   -0.189167 
7   -0.338585 
8   0.191658 
9   0.181506 
10   0.088545 
11   -0.48575 
12   0.151671 
13   0.151363 
14   0.152102 
15   0.14797 
16   0.152048 
17   0.180269 
18   0.152056 
19   0.150743 
20   0.153394 
21   0.116351 
22   0.134803 
23   0.147884 
24   0.116291 
25   0.151404 
26   0.137423 
27   0.1355 
 
>  <lowdin_charges> 
27 
1   -0.438757 
2   -0.448981 
3   -0.439971 
4   -0.209124 
5   -0.133117 
6   -0.216871 
7   -0.288815 
8   0.010611 
9   -0.014063 
10   8.9e-05 
11   -0.276629 
12   0.15456 
13   0.155081 
14   0.1531 
15   0.154476 
16   0.157709 
17   0.168883 
18   0.155408 
19   0.154556 
20   0.155667 
21   0.152284 
22   0.136168 
23   0.154207 
24   0.146704 
25   0.157116 
26   0.150615 
27   0.149096 
 
$$$$ 
 
