PCCDB-ID:  8717 
public computational chemistry database (PCCDB) project, http://pccdb.org 
 
 23 23  0  0  0  0  0  0  0  0999 V2000 
    0.9188   -0.0474    0.0087 C   0  0  0  0  0  0  0  0  0  0  0  0 
    2.4366   -2.6003   -0.0754 C   0  0  0  0  0  0  0  0  0  0  0  0 
    5.2626    2.5163   -0.3357 C   0  0  0  0  0  0  0  0  0  0  0  0 
    3.1412    1.1388   -0.1768 C   0  0  0  0  0  0  0  0  0  0  0  0 
    4.5382   -1.2267   -0.2618 C   0  0  0  0  0  0  0  0  0  0  0  0 
    2.4252   -0.0598   -0.1074 C   0  0  0  0  0  0  0  0  0  0  0  0 
    3.1477   -1.2691   -0.1476 C   0  0  0  0  0  0  0  0  0  0  0  0 
    4.5326    1.1968   -0.2844 C   0  0  0  0  0  0  0  0  0  0  0  0 
    5.2452   -0.0178   -0.3300 C   0  0  0  0  0  0  0  0  0  0  0  0 
    6.6490   -0.0175   -0.3779 N   0  0  0  0  0  0  0  0  0  0  0  0 
    0.5371    0.9781    0.0423 H   0  0  0  0  0  0  0  0  0  0  0  0 
    0.5706   -0.5589    0.9163 H   0  0  0  0  0  0  0  0  0  0  0  0 
    0.4352   -0.5516   -0.8392 H   0  0  0  0  0  0  0  0  0  0  0  0 
    3.1455   -3.4329   -0.1208 H   0  0  0  0  0  0  0  0  0  0  0  0 
    1.7220   -2.7250   -0.8997 H   0  0  0  0  0  0  0  0  0  0  0  0 
    1.8616   -2.7027    0.8545 H   0  0  0  0  0  0  0  0  0  0  0  0 
    4.5677    3.3547   -0.2298 H   0  0  0  0  0  0  0  0  0  0  0  0 
    5.7975    2.6601   -1.2874 H   0  0  0  0  0  0  0  0  0  0  0  0 
    6.0113    2.5942    0.4640 H   0  0  0  0  0  0  0  0  0  0  0  0 
    2.5900    2.0776   -0.1428 H   0  0  0  0  0  0  0  0  0  0  0  0 
    5.0955   -2.1621   -0.2926 H   0  0  0  0  0  0  0  0  0  0  0  0 
    7.0476   -0.8927   -0.6973 H   0  0  0  0  0  0  0  0  0  0  0  0 
    7.0535    0.7623   -0.8825 H   0  0  0  0  0  0  0  0  0  0  0  0 
  1 11  1  0  0  0  0 
  1 12  1  0  0  0  0 
  2 16  1  0  0  0  0 
  3  8  1  0  0  0  0 
  3 17  1  0  0  0  0 
  3 19  1  0  0  0  0 
  4 20  1  0  0  0  0 
  4  6  2  0  0  0  0 
  5  7  2  0  0  0  0 
  6  1  1  0  0  0  0 
  7  6  1  0  0  0  0 
  7  2  1  0  0  0  0 
  8  4  1  0  0  0  0 
  9  8  2  0  0  0  0 
  9  5  1  0  0  0  0 
 10  9  1  0  0  0  0 
 13  1  1  0  0  0  0 
 14  2  1  0  0  0  0 
 15  2  1  0  0  0  0 
 18  3  1  0  0  0  0 
 21  5  1  0  0  0  0 
 22 10  1  0  0  0  0 
 23 10  1  0  0  0  0 
M  END 
>  <HBA> 
1 
 
>  <HBD> 
1 
 
>  <TPSA> 
26.02 
 
>  <cid> 
8717 
 
>  <dipole> 
1.44 
 
>  <excitation_energy_1> 
4.498 
 
>  <excitation_energy_2> 
4.673 
 
>  <excitation_energy_3> 
5.105 
 
>  <excitation_energy_4> 
5.166 
 
>  <homo_energy> 
-5.099 
 
>  <homo_lumo_gap> 
5.589 
 
>  <logP> 
2.775 
 
>  <lumo_energy> 
0.49 
 
>  <melting_point> 
66.99 
 
>  <molecular_refractivity> 
45.74 
 
>  <oscillator_strength_1> 
0.0109 
 
>  <oscillator_strength_2> 
0.0454 
 
>  <oscillator_strength_3> 
0.0052 
 
>  <oscillator_strength_4> 
0.0017 
 
>  <open_babel_can_smiles> 
Cc1cc(N)c(cc1C)C 
 
>  <mulliken_charges> 
23 
1   -0.534403 
2   -0.533495 
3   -0.553291 
4   -0.270776 
5   -0.23694 
6   0.142527 
7   0.126977 
8   0.177574 
9   0.243412 
10   -0.793161 
11   0.150164 
12   0.152726 
13   0.152059 
14   0.150045 
15   0.155964 
16   0.157497 
17   0.157547 
18   0.14399 
19   0.166508 
20   0.107657 
21   0.103923 
22   0.315185 
23   0.31831 
 
>  <lowdin_charges> 
23 
1   -0.441105 
2   -0.44127 
3   -0.445215 
4   -0.169827 
5   -0.210776 
6   -0.033594 
7   -0.003532 
8   -0.043284 
9   0.047401 
10   -0.497051 
11   0.153566 
12   0.154036 
13   0.154045 
14   0.154669 
15   0.156903 
16   0.157267 
17   0.159807 
18   0.147142 
19   0.159947 
20   0.148158 
21   0.146324 
22   0.272088 
23   0.274299 
 
$$$$ 
 
