PCCDB-ID:  65073 
public computational chemistry database (PCCDB) project, http://pccdb.org 
 
 19 20  0  0  0  0  0  0  0  0999 V2000 
   -1.3614   -0.0615    0.0357 C   0  0  0  0  0  0  0  0  0  0  0  0 
   -0.7173    1.1694    0.1713 C   0  0  0  0  0  0  0  0  0  0  0  0 
   -0.6121   -1.2260   -0.1619 C   0  0  0  0  0  0  0  0  0  0  0  0 
    0.6736    1.2428    0.1106 C   0  0  0  0  0  0  0  0  0  0  0  0 
    0.7758   -1.1614   -0.2231 C   0  0  0  0  0  0  0  0  0  0  0  0 
    5.0278   -0.3041   -0.3203 C   0  0  0  0  0  0  0  0  0  0  0  0 
    1.4257    0.0758   -0.0869 C   0  0  0  0  0  0  0  0  0  0  0  0 
    4.8450    1.1942   -0.1061 C   0  0  0  0  0  0  0  0  0  0  0  0 
    2.8891    0.1219   -0.1541 C   0  0  0  0  0  0  0  0  0  0  0  0 
    3.6850   -0.8632   -0.3293 N   0  0  0  0  0  0  0  0  0  0  0  0 
    5.6299    2.0931   -0.0229 O   0  0  0  0  0  0  0  0  0  0  0  0 
    3.4679    1.3810   -0.0106 O   0  0  0  0  0  0  0  0  0  0  0  0 
   -2.4456   -0.1153    0.0833 H   0  0  0  0  0  0  0  0  0  0  0  0 
   -1.2975    2.0749    0.3244 H   0  0  0  0  0  0  0  0  0  0  0  0 
   -1.1126   -2.1843   -0.2675 H   0  0  0  0  0  0  0  0  0  0  0  0 
    1.1795    2.1963    0.2158 H   0  0  0  0  0  0  0  0  0  0  0  0 
    1.3733   -2.0542   -0.3760 H   0  0  0  0  0  0  0  0  0  0  0  0 
    5.6400   -0.7360    0.4812 H   0  0  0  0  0  0  0  0  0  0  0  0 
    5.5525   -0.4974   -1.2642 H   0  0  0  0  0  0  0  0  0  0  0  0 
  1 13  1  0  0  0  0 
  1  2  2  0  0  0  0 
  2 14  1  0  0  0  0 
  3  1  1  0  0  0  0 
  4  2  1  0  0  0  0 
  4 16  1  0  0  0  0 
  5  3  2  0  0  0  0 
  5  7  1  0  0  0  0 
  6  8  1  0  0  0  0 
  6 18  1  0  0  0  0 
  7  4  2  0  0  0  0 
  8 11  2  0  0  0  0 
  8 12  1  0  0  0  0 
  9  7  1  0  0  0  0 
  9 12  1  0  0  0  0 
 10  6  1  0  0  0  0 
 10  9  2  0  0  0  0 
 15  3  1  0  0  0  0 
 17  5  1  0  0  0  0 
 19  6  1  0  0  0  0 
M  END 
>  <HBA> 
3 
 
>  <HBD> 
0 
 
>  <TPSA> 
38.66 
 
>  <cid> 
65073 
 
>  <dipole> 
2.8 
 
>  <excitation_energy_1> 
4.798 
 
>  <excitation_energy_2> 
4.826 
 
>  <excitation_energy_3> 
5.009 
 
>  <excitation_energy_4> 
5.605 
 
>  <homo_energy> 
-6.895 
 
>  <homo_lumo_gap> 
5.339 
 
>  <logP> 
0.426 
 
>  <lumo_energy> 
-1.557 
 
>  <melting_point> 
58.71 
 
>  <molecular_refractivity> 
47.2 
 
>  <oscillator_strength_1> 
0.0158 
 
>  <oscillator_strength_2> 
0.0025 
 
>  <oscillator_strength_3> 
0.3432 
 
>  <oscillator_strength_4> 
0.0 
 
>  <open_babel_can_smiles> 
O=C1CN=C(O1)c1ccccc1 
 
>  <mulliken_charges> 
19 
1   -0.116866 
2   -0.136629 
3   -0.137952 
4   -0.16693 
5   -0.154692 
6   -0.258157 
7   0.075574 
8   0.599118 
9   0.512284 
10   -0.460292 
11   -0.433251 
12   -0.488128 
13   0.140155 
14   0.141505 
15   0.14102 
16   0.165469 
17   0.168082 
18   0.204843 
19   0.204847 
 
>  <lowdin_charges> 
19 
1   -0.13712 
2   -0.153732 
3   -0.152999 
4   -0.142525 
5   -0.131916 
6   -0.238246 
7   -0.027476 
8   0.204744 
9   0.140384 
10   -0.205865 
11   -0.204436 
12   -0.167047 
13   0.160877 
14   0.164194 
15   0.163435 
16   0.17549 
17   0.178983 
18   0.187102 
19   0.186155 
 
$$$$ 
 
