PCCDB-ID:  28812 
public computational chemistry database (PCCDB) project, http://pccdb.org 
 
 27 27  0  0  0  0  0  0  0  0999 V2000 
    2.9444    0.2372   -1.5150 C   0  0  0  0  0  0  0  0  0  0  0  0 
    4.5759   -5.2714    1.7304 C   0  0  0  0  0  0  0  0  0  0  0  0 
    5.9662   -2.7216    2.3609 C   0  0  0  0  0  0  0  0  0  0  0  0 
    0.9786   -2.7297   -0.7104 C   0  0  0  0  0  0  0  0  0  0  0  0 
    2.4208   -0.1464   -0.1181 C   0  0  0  0  0  0  0  0  0  0  0  0 
    2.8383   -3.8929    0.5271 C   0  0  0  0  0  0  0  0  0  0  0  0 
    4.1213   -1.5411    1.1070 C   0  0  0  0  0  0  0  0  0  0  0  0 
    4.0241   -3.9445    1.2649 C   0  0  0  0  0  0  0  0  0  0  0  0 
    4.6833   -2.7362    1.5635 C   0  0  0  0  0  0  0  0  0  0  0  0 
    2.2763   -2.6962    0.0671 C   0  0  0  0  0  0  0  0  0  0  0  0 
    2.9357   -1.4885    0.3646 C   0  0  0  0  0  0  0  0  0  0  0  0 
    2.5560    1.2145   -1.8252 H   0  0  0  0  0  0  0  0  0  0  0  0 
    2.6477   -0.4995   -2.2699 H   0  0  0  0  0  0  0  0  0  0  0  0 
    4.0389    0.2888   -1.5187 H   0  0  0  0  0  0  0  0  0  0  0  0 
    3.9367   -6.0995    1.4089 H   0  0  0  0  0  0  0  0  0  0  0  0 
    4.6563   -5.3186    2.8246 H   0  0  0  0  0  0  0  0  0  0  0  0 
    5.5836   -5.4558    1.3346 H   0  0  0  0  0  0  0  0  0  0  0  0 
    6.3374   -1.7005    2.4925 H   0  0  0  0  0  0  0  0  0  0  0  0 
    6.7579   -3.3030    1.8701 H   0  0  0  0  0  0  0  0  0  0  0  0 
    5.8313   -3.1578    3.3597 H   0  0  0  0  0  0  0  0  0  0  0  0 
    0.6571   -3.7610   -0.8863 H   0  0  0  0  0  0  0  0  0  0  0  0 
    1.0666   -2.2402   -1.6878 H   0  0  0  0  0  0  0  0  0  0  0  0 
    0.1679   -2.2204   -0.1726 H   0  0  0  0  0  0  0  0  0  0  0  0 
    1.3242   -0.1407   -0.1307 H   0  0  0  0  0  0  0  0  0  0  0  0 
    2.7218    0.6306    0.5960 H   0  0  0  0  0  0  0  0  0  0  0  0 
    2.3271   -4.8272    0.3002 H   0  0  0  0  0  0  0  0  0  0  0  0 
    4.6276   -0.6057    1.3423 H   0  0  0  0  0  0  0  0  0  0  0  0 
  1  5  1  0  0  0  0 
  2 16  1  0  0  0  0 
  3 18  1  0  0  0  0 
  3 20  1  0  0  0  0 
  4 23  1  0  0  0  0 
  4 10  1  0  0  0  0 
  5 11  1  0  0  0  0 
  5 25  1  0  0  0  0 
  6  8  2  0  0  0  0 
  7 27  1  0  0  0  0 
  7  9  2  0  0  0  0 
  8  9  1  0  0  0  0 
  8  2  1  0  0  0  0 
  9  3  1  0  0  0  0 
 10 11  2  0  0  0  0 
 10  6  1  0  0  0  0 
 11  7  1  0  0  0  0 
 12  1  1  0  0  0  0 
 13  1  1  0  0  0  0 
 14  1  1  0  0  0  0 
 15  2  1  0  0  0  0 
 17  2  1  0  0  0  0 
 19  3  1  0  0  0  0 
 21  4  1  0  0  0  0 
 22  4  1  0  0  0  0 
 24  5  1  0  0  0  0 
 26  6  1  0  0  0  0 
M  END 
>  <HBA> 
0 
 
>  <HBD> 
0 
 
>  <TPSA> 
0.0 
 
>  <cid> 
28812 
 
>  <dipole> 
0.07 
 
>  <excitation_energy_1> 
5.066 
 
>  <excitation_energy_2> 
5.484 
 
>  <excitation_energy_3> 
5.637 
 
>  <excitation_energy_4> 
5.823 
 
>  <homo_energy> 
-5.878 
 
>  <homo_lumo_gap> 
6.131 
 
>  <logP> 
3.174 
 
>  <lumo_energy> 
0.253 
 
>  <melting_point> 
21.0 
 
>  <molecular_refractivity> 
51.11 
 
>  <oscillator_strength_1> 
0.0055 
 
>  <oscillator_strength_2> 
0.045 
 
>  <oscillator_strength_3> 
0.0215 
 
>  <oscillator_strength_4> 
0.0053 
 
>  <open_babel_can_smiles> 
CCc1cc(C)c(cc1C)C 
 
>  <mulliken_charges> 
27 
1   -0.436778 
2   -0.534146 
3   -0.533889 
4   -0.541469 
5   -0.340195 
6   -0.253419 
7   -0.252899 
8   0.141569 
9   0.139258 
10   0.139114 
11   0.130262 
12   0.141129 
13   0.149091 
14   0.149136 
15   0.153005 
16   0.156655 
17   0.156548 
18   0.152826 
19   0.156564 
20   0.156695 
21   0.153031 
22   0.158884 
23   0.159726 
24   0.139618 
25   0.140656 
26   0.109386 
27   0.109643 
 
>  <lowdin_charges> 
27 
1   -0.43962 
2   -0.439293 
3   -0.441294 
4   -0.443738 
5   -0.271229 
6   -0.178533 
7   -0.177108 
8   -0.01256 
9   -0.011533 
10   -0.012157 
11   -0.015028 
12   0.147683 
13   0.149448 
14   0.148375 
15   0.156554 
16   0.15469 
17   0.155913 
18   0.154994 
19   0.157654 
20   0.156012 
21   0.154908 
22   0.156175 
23   0.158343 
24   0.145655 
25   0.149005 
26   0.148384 
27   0.148298 
 
$$$$ 
 
