PCCDB-ID:  7524 
public computational chemistry database (PCCDB) project, http://pccdb.org 
 
 20 20  0  0  1  0  0  0  0  0999 V2000 
    0.8279    1.2809   -0.2067 C   0  0  0  0  0  0  0  0  0  0  0  0 
    1.4234   -0.0720    0.2126 C   0  0  0  0  0  0  0  0  0  0  0  0 
   -0.6546    1.3612    0.1939 C   0  0  0  0  0  0  0  0  0  0  0  0 
    0.5471   -1.2167   -0.2991 C   0  0  0  0  0  0  0  0  0  0  0  0 
   -2.8606    0.0509    0.1712 C   0  0  0  0  0  0  0  0  0  0  0  0 
   -1.4169    0.1343   -0.3132 C   0  0  2  0  0  0  0  0  0  0  0  0 
   -3.4985   -1.1194   -0.3065 O   0  0  0  0  0  0  0  0  0  0  0  0 
   -0.7987   -1.0759    0.1466 O   0  0  0  0  0  0  0  0  0  0  0  0 
    0.9148    1.3933   -1.2972 H   0  0  0  0  0  0  0  0  0  0  0  0 
    1.3922    2.1077    0.2408 H   0  0  0  0  0  0  0  0  0  0  0  0 
    1.4739   -0.1317    1.3078 H   0  0  0  0  0  0  0  0  0  0  0  0 
    2.4461   -0.1877   -0.1686 H   0  0  0  0  0  0  0  0  0  0  0  0 
   -1.1152    2.2739   -0.2059 H   0  0  0  0  0  0  0  0  0  0  0  0 
   -0.7421    1.4035    1.2883 H   0  0  0  0  0  0  0  0  0  0  0  0 
    0.8897   -2.1858    0.0766 H   0  0  0  0  0  0  0  0  0  0  0  0 
    0.5718   -1.2501   -1.4023 H   0  0  0  0  0  0  0  0  0  0  0  0 
   -3.4314    0.9070   -0.2043 H   0  0  0  0  0  0  0  0  0  0  0  0 
   -2.8687    0.0935    1.2735 H   0  0  0  0  0  0  0  0  0  0  0  0 
   -1.4164    0.1283   -1.4176 H   0  0  0  0  0  0  0  0  0  0  0  0 
   -2.8721   -1.8398   -0.1214 H   0  0  0  0  0  0  0  0  0  0  0  0 
  1  3  1  0  0  0  0 
  1  2  1  0  0  0  0 
  1 10  1  0  0  0  0 
  2 11  1  0  0  0  0 
  3 14  1  0  0  0  0 
  4 15  1  0  0  0  0 
  4  8  1  0  0  0  0 
  4  2  1  0  0  0  0 
  5 18  1  0  0  0  0 
  6 19  1  6  0  0  0 
  6  8  1  0  0  0  0 
  6  5  1  0  0  0  0 
  6  3  1  0  0  0  0 
  7 20  1  0  0  0  0 
  7  5  1  0  0  0  0 
  9  1  1  0  0  0  0 
 12  2  1  0  0  0  0 
 13  3  1  0  0  0  0 
 16  4  1  0  0  0  0 
 17  5  1  0  0  0  0 
M  END 
>  <HBA> 
2 
 
>  <HBD> 
1 
 
>  <TPSA> 
29.46 
 
>  <cid> 
7524 
 
>  <dipole> 
2.81 
 
>  <excitation_energy_1> 
6.574 
 
>  <excitation_energy_2> 
6.766 
 
>  <excitation_energy_3> 
6.867 
 
>  <excitation_energy_4> 
6.969 
 
>  <homo_energy> 
-6.909 
 
>  <homo_lumo_gap> 
9.178 
 
>  <logP> 
0.548 
 
>  <lumo_energy> 
2.269 
 
>  <melting_point> 
5.68 
 
>  <molecular_refractivity> 
31.09 
 
>  <oscillator_strength_1> 
0.0046 
 
>  <oscillator_strength_2> 
0.0133 
 
>  <oscillator_strength_3> 
0.0165 
 
>  <oscillator_strength_4> 
0.0213 
 
>  <open_babel_can_smiles> 
OC[C@H]1CCCCO1 
 
>  <mulliken_charges> 
20 
1   -0.272952 
2   -0.272502 
3   -0.272437 
4   -0.024792 
5   -0.02429 
6   0.120355 
7   -0.628361 
8   -0.503721 
9   0.133632 
10   0.140658 
11   0.143974 
12   0.135441 
13   0.136387 
14   0.139529 
15   0.145777 
16   0.122057 
17   0.139383 
18   0.121882 
19   0.118461 
20   0.40152 
 
>  <lowdin_charges> 
20 
1   -0.276947 
2   -0.289741 
3   -0.29012 
4   -0.128369 
5   -0.138251 
6   -0.015999 
7   -0.468676 
8   -0.286985 
9   0.138187 
10   0.149232 
11   0.144791 
12   0.1484 
13   0.150164 
14   0.143782 
15   0.149725 
16   0.124616 
17   0.148726 
18   0.126686 
19   0.12542 
20   0.345358 
 
$$$$ 
 
