PCCDB-ID:  11577 
public computational chemistry database (PCCDB) project, http://pccdb.org 
 
 25 24  0  0  0  0  0  0  0  0999 V2000 
    0.7812   -1.5292    1.9134 C   0  0  0  0  0  0  0  0  0  0  0  0 
    6.8033   -6.1436    2.2288 C   0  0  0  0  0  0  0  0  0  0  0  0 
    2.3110   -1.4793    1.9683 C   0  0  0  0  0  0  0  0  0  0  0  0 
    5.9407   -4.9613    1.8277 C   0  0  0  0  0  0  0  0  0  0  0  0 
    2.9540   -1.2671    0.5938 C   0  0  0  0  0  0  0  0  0  0  0  0 
    4.4860   -1.2600    0.6329 C   0  0  0  0  0  0  0  0  0  0  0  0 
    6.2463   -2.6884    1.2634 C   0  0  0  0  0  0  0  0  0  0  0  0 
    4.9992   -2.5573    1.0535 N   0  0  0  0  0  0  0  0  0  0  0  0 
    7.2281   -1.7554    1.1553 O   0  0  0  0  0  0  0  0  0  0  0  0 
    6.8208   -3.8360    1.6445 O   0  0  0  0  0  0  0  0  0  0  0  0 
    0.3502   -1.6851    2.9091 H   0  0  0  0  0  0  0  0  0  0  0  0 
    0.4345   -2.3474    1.2699 H   0  0  0  0  0  0  0  0  0  0  0  0 
    0.3643   -0.5963    1.5133 H   0  0  0  0  0  0  0  0  0  0  0  0 
    6.1737   -7.0275    2.3788 H   0  0  0  0  0  0  0  0  0  0  0  0 
    7.3395   -5.9388    3.1610 H   0  0  0  0  0  0  0  0  0  0  0  0 
    7.5397   -6.3715    1.4516 H   0  0  0  0  0  0  0  0  0  0  0  0 
    2.7017   -2.4097    2.3969 H   0  0  0  0  0  0  0  0  0  0  0  0 
    2.6277   -0.6702    2.6432 H   0  0  0  0  0  0  0  0  0  0  0  0 
    5.2004   -4.7123    2.5955 H   0  0  0  0  0  0  0  0  0  0  0  0 
    5.3974   -5.1442    0.8948 H   0  0  0  0  0  0  0  0  0  0  0  0 
    2.6087   -0.3161    0.1637 H   0  0  0  0  0  0  0  0  0  0  0  0 
    2.6317   -2.0623   -0.0916 H   0  0  0  0  0  0  0  0  0  0  0  0 
    4.8115   -0.4519    1.3166 H   0  0  0  0  0  0  0  0  0  0  0  0 
    4.8639   -0.9971   -0.3706 H   0  0  0  0  0  0  0  0  0  0  0  0 
    6.8210   -0.9201    0.8766 H   0  0  0  0  0  0  0  0  0  0  0  0 
  1  3  1  0  0  0  0 
  1 11  1  0  0  0  0 
  2 14  1  0  0  0  0 
  2 15  1  0  0  0  0 
  3 17  1  0  0  0  0 
  3 18  1  0  0  0  0 
  4  2  1  0  0  0  0 
  4 19  1  0  0  0  0 
  5  6  1  0  0  0  0 
  5  3  1  0  0  0  0 
  6  8  1  0  0  0  0 
  6 23  1  0  0  0  0 
  7 10  1  0  0  0  0 
  8  7  2  0  0  0  0 
  9  7  1  0  0  0  0 
 10  4  1  0  0  0  0 
 12  1  1  0  0  0  0 
 13  1  1  0  0  0  0 
 16  2  1  0  0  0  0 
 20  4  1  0  0  0  0 
 21  5  1  0  0  0  0 
 22  5  1  0  0  0  0 
 24  6  1  0  0  0  0 
 25  9  1  0  0  0  0 
M  END 
>  <HBA> 
3 
 
>  <HBD> 
1 
 
>  <TPSA> 
38.33 
 
>  <cid> 
11577 
 
>  <dipole> 
0.9 
 
>  <excitation_energy_1> 
5.843 
 
>  <excitation_energy_2> 
6.248 
 
>  <excitation_energy_3> 
6.584 
 
>  <excitation_energy_4> 
6.716 
 
>  <homo_energy> 
-6.618 
 
>  <homo_lumo_gap> 
7.981 
 
>  <logP> 
1.923 
 
>  <lumo_energy> 
1.363 
 
>  <melting_point> 
22.73 
 
>  <molecular_refractivity> 
40.24 
 
>  <oscillator_strength_1> 
0.0046 
 
>  <oscillator_strength_2> 
0.0117 
 
>  <oscillator_strength_3> 
0.0097 
 
>  <oscillator_strength_4> 
0.0032 
 
>  <open_babel_can_smiles> 
CCCC/N=C(/OCC)\O 
 
>  <mulliken_charges> 
25 
1   -0.441968 
2   -0.459962 
3   -0.245677 
4   -0.018742 
5   -0.245072 
6   -0.176016 
7   0.694705 
8   -0.467714 
9   -0.596653 
10   -0.461144 
11   0.140846 
12   0.142046 
13   0.137841 
14   0.149031 
15   0.16194 
16   0.161981 
17   0.153923 
18   0.122071 
19   0.154622 
20   0.156261 
21   0.121522 
22   0.14058 
23   0.117458 
24   0.132618 
25   0.425502 
 
>  <lowdin_charges> 
25 
1   -0.444989 
2   -0.450636 
3   -0.275292 
4   -0.117037 
5   -0.27557 
6   -0.208649 
7   0.183635 
8   -0.280656 
9   -0.361577 
10   -0.180507 
11   0.148359 
12   0.147411 
13   0.144347 
14   0.157844 
15   0.159028 
16   0.159789 
17   0.150667 
18   0.136042 
19   0.149797 
20   0.150548 
21   0.138189 
22   0.14743 
23   0.123076 
24   0.132943 
25   0.365808 
 
$$$$ 
 
