PCCDB-ID:  14471 
public computational chemistry database (PCCDB) project, http://pccdb.org 
 
 13 12  0  0  0  0  0  0  0  0999 V2000 
    2.9822    0.0769    1.2838 C   0  0  0  0  0  0  0  0  0  0  0  0 
    1.1168    1.1679   -2.3499 C   0  0  0  0  0  0  0  0  0  0  0  0 
    2.4169    0.0629    0.0710 C   0  0  0  0  0  0  0  0  0  0  0  0 
    3.0833    0.5406   -1.1682 C   0  0  0  0  0  0  0  0  0  0  0  0 
    2.5453    0.9811   -2.2303 N   0  0  0  0  0  0  0  0  0  0  0  0 
    4.4549    0.5192   -1.1464 O   0  0  0  0  0  0  0  0  0  0  0  0 
    2.4526   -0.2875    2.1591 H   0  0  0  0  0  0  0  0  0  0  0  0 
    3.9765    0.4822    1.4579 H   0  0  0  0  0  0  0  0  0  0  0  0 
    0.9156    2.2289   -2.5457 H   0  0  0  0  0  0  0  0  0  0  0  0 
    0.5085    0.8718   -1.4822 H   0  0  0  0  0  0  0  0  0  0  0  0 
    0.7587    0.6152   -3.2273 H   0  0  0  0  0  0  0  0  0  0  0  0 
    1.4034   -0.3116   -0.0372 H   0  0  0  0  0  0  0  0  0  0  0  0 
    4.7388   -0.1088   -0.4639 H   0  0  0  0  0  0  0  0  0  0  0  0 
  1  8  1  0  0  0  0 
  1  7  1  0  0  0  0 
  2  5  1  0  0  0  0 
  2 10  1  0  0  0  0 
  3  1  2  0  0  0  0 
  4  6  1  0  0  0  0 
  4  3  1  0  0  0  0 
  5  4  2  0  0  0  0 
  6 13  1  0  0  0  0 
  9  2  1  0  0  0  0 
 11  2  1  0  0  0  0 
 12  3  1  0  0  0  0 
M  END 
>  <HBA> 
2 
 
>  <HBD> 
1 
 
>  <TPSA> 
29.1 
 
>  <cid> 
14471 
 
>  <dipole> 
3.51 
 
>  <excitation_energy_1> 
4.306 
 
>  <excitation_energy_2> 
5.116 
 
>  <excitation_energy_3> 
6.108 
 
>  <excitation_energy_4> 
6.234 
 
>  <homo_energy> 
-6.672 
 
>  <homo_lumo_gap> 
5.584 
 
>  <logP> 
0.309 
 
>  <lumo_energy> 
-1.088 
 
>  <melting_point> 
2.74 
 
>  <molecular_refractivity> 
23.87 
 
>  <oscillator_strength_1> 
0.0017 
 
>  <oscillator_strength_2> 
0.1974 
 
>  <oscillator_strength_3> 
0.0206 
 
>  <oscillator_strength_4> 
0.0086 
 
>  <open_babel_can_smiles> 
C/N=C(\C=C)/O 
 
>  <mulliken_charges> 
13 
1   -0.35198 
2   -0.322069 
3   -0.120913 
4   0.459629 
5   -0.400889 
6   -0.587176 
7   0.160953 
8   0.156981 
9   0.165449 
10   0.123468 
11   0.161027 
12   0.156716 
13   0.398803 
 
>  <lowdin_charges> 
13 
1   -0.314522 
2   -0.356009 
3   -0.1808 
4   0.11934 
5   -0.18757 
6   -0.376473 
7   0.170632 
8   0.162228 
9   0.15724 
10   0.127658 
11   0.156366 
12   0.168823 
13   0.353087 
 
$$$$ 
 
