PCCDB-ID:  20307 
public computational chemistry database (PCCDB) project, http://pccdb.org 
 
 18 17  0  0  0  0  0  0  0  0999 V2000 
    1.4048    0.1696   -0.8503 C   0  0  0  0  0  0  0  0  0  0  0  0 
    2.6928   -0.2101   -0.0968 C   0  0  0  0  0  0  0  0  0  0  0  0 
    3.1281    0.8473    0.8734 C   0  0  0  0  0  0  0  0  0  0  0  0 
    4.3104    1.4916    0.8494 C   0  0  0  0  0  0  0  0  0  0  0  0 
    4.6827    2.5125    1.8047 C   0  0  0  0  0  0  0  0  0  0  0  0 
    5.8579    3.1807    1.8178 C   0  0  0  0  0  0  0  0  0  0  0  0 
    6.1409    4.2000    2.8288 C   0  0  0  0  0  0  0  0  0  0  0  0 
    7.1772    4.8380    2.8999 O   0  0  0  0  0  0  0  0  0  0  0  0 
    1.0971   -0.6383   -1.5229 H   0  0  0  0  0  0  0  0  0  0  0  0 
    1.5525    1.0749   -1.4488 H   0  0  0  0  0  0  0  0  0  0  0  0 
    0.5796    0.3592   -0.1538 H   0  0  0  0  0  0  0  0  0  0  0  0 
    3.5000   -0.4144   -0.8109 H   0  0  0  0  0  0  0  0  0  0  0  0 
    2.5147   -1.1467    0.4530 H   0  0  0  0  0  0  0  0  0  0  0  0 
    2.4078    1.1093    1.6516 H   0  0  0  0  0  0  0  0  0  0  0  0 
    5.0402    1.2444    0.0782 H   0  0  0  0  0  0  0  0  0  0  0  0 
    3.9437    2.7536    2.5718 H   0  0  0  0  0  0  0  0  0  0  0  0 
    6.6363    2.9865    1.0827 H   0  0  0  0  0  0  0  0  0  0  0  0 
    5.3174    4.3665    3.5617 H   0  0  0  0  0  0  0  0  0  0  0  0 
  1 11  1  0  0  0  0 
  1  2  1  0  0  0  0 
  2 13  1  0  0  0  0 
  2  3  1  0  0  0  0 
  3 14  1  0  0  0  0 
  4  3  2  0  0  0  0 
  4  5  1  0  0  0  0 
  5  6  2  0  0  0  0 
  5 16  1  0  0  0  0 
  6  7  1  0  0  0  0 
  7  8  2  0  0  0  0 
  7 18  1  0  0  0  0 
  9  1  1  0  0  0  0 
 10  1  1  0  0  0  0 
 12  2  1  0  0  0  0 
 15  4  1  0  0  0  0 
 17  6  1  0  0  0  0 
M  END 
>  <HBA> 
1 
 
>  <HBD> 
0 
 
>  <TPSA> 
17.07 
 
>  <cid> 
20307 
 
>  <dipole> 
5.0 
 
>  <excitation_energy_1> 
3.428 
 
>  <excitation_energy_2> 
4.714 
 
>  <excitation_energy_3> 
6.064 
 
>  <excitation_energy_4> 
6.088 
 
>  <homo_energy> 
-6.553 
 
>  <homo_lumo_gap> 
4.618 
 
>  <logP> 
1.708 
 
>  <lumo_energy> 
-1.935 
 
>  <melting_point> 
24.08 
 
>  <molecular_refractivity> 
35.02 
 
>  <oscillator_strength_1> 
0.0001 
 
>  <oscillator_strength_2> 
0.9678 
 
>  <oscillator_strength_3> 
0.0005 
 
>  <oscillator_strength_4> 
0.0107 
 
>  <open_babel_can_smiles> 
CC/C=C/C=C/C=O 
 
>  <mulliken_charges> 
18 
1   -0.443706 
2   -0.306042 
3   -0.088684 
4   -0.10936 
5   -0.0985 
6   -0.170034 
7   0.22754 
8   -0.422062 
9   0.152823 
10   0.157053 
11   0.149179 
12   0.149292 
13   0.155754 
14   0.133953 
15   0.133898 
16   0.138797 
17   0.146823 
18   0.093276 
 
>  <lowdin_charges> 
18 
1   -0.442956 
2   -0.270701 
3   -0.12519 
4   -0.170173 
5   -0.1089 
6   -0.202828 
7   0.035616 
8   -0.23663 
9   0.15607 
10   0.154504 
11   0.151346 
12   0.151931 
13   0.156555 
14   0.154451 
15   0.158706 
16   0.159333 
17   0.167821 
18   0.111047 
 
$$$$ 
 
