PCCDB-ID:  35412 
public computational chemistry database (PCCDB) project, http://pccdb.org 
 
 27 27  0  0  1  0  0  0  0  0999 V2000 
    2.9476   -0.6983   -1.2050 C   0  0  0  0  0  0  0  0  0  0  0  0 
    2.5414   -3.6489    3.4639 C   0  0  0  0  0  0  0  0  0  0  0  0 
    2.4171    0.0976   -0.0067 C   0  0  0  0  0  0  0  0  0  0  0  0 
    3.0404    0.2097    3.8558 C   0  0  0  0  0  0  0  0  0  0  0  0 
    2.5948   -1.2172    4.2054 C   0  0  0  0  0  0  0  0  0  0  0  0 
    2.5332    0.6342    2.4706 C   0  0  0  0  0  0  0  0  0  0  0  0 
    2.5065   -1.7824    1.7413 C   0  0  0  0  0  0  0  0  0  0  0  0 
    3.0137   -2.2300    3.1254 C   0  0  2  0  0  0  0  0  0  0  0  0 
    2.9504   -0.3550    1.3658 C   0  0  1  0  0  0  0  0  0  0  0  0 
    2.5690   -0.2854   -2.1471 H   0  0  0  0  0  0  0  0  0  0  0  0 
    2.6472   -1.7510   -1.1656 H   0  0  0  0  0  0  0  0  0  0  0  0 
    4.0437   -0.6671   -1.2463 H   0  0  0  0  0  0  0  0  0  0  0  0 
    2.9311   -3.9783    4.4348 H   0  0  0  0  0  0  0  0  0  0  0  0 
    2.8724   -4.3713    2.7078 H   0  0  0  0  0  0  0  0  0  0  0  0 
    1.4456   -3.6969    3.5121 H   0  0  0  0  0  0  0  0  0  0  0  0 
    1.3179    0.0541    0.0050 H   0  0  0  0  0  0  0  0  0  0  0  0 
    2.6755    1.1571   -0.1452 H   0  0  0  0  0  0  0  0  0  0  0  0 
    4.1394    0.2584    3.8687 H   0  0  0  0  0  0  0  0  0  0  0  0 
    2.6902    0.9153    4.6202 H   0  0  0  0  0  0  0  0  0  0  0  0 
    1.4987   -1.2414    4.3097 H   0  0  0  0  0  0  0  0  0  0  0  0 
    3.0060   -1.5163    5.1790 H   0  0  0  0  0  0  0  0  0  0  0  0 
    2.9002    1.6403    2.2262 H   0  0  0  0  0  0  0  0  0  0  0  0 
    1.4342    0.7014    2.4915 H   0  0  0  0  0  0  0  0  0  0  0  0 
    1.4049   -1.8246    1.7357 H   0  0  0  0  0  0  0  0  0  0  0  0 
    2.8460   -2.5001    0.9835 H   0  0  0  0  0  0  0  0  0  0  0  0 
    4.1154   -2.2390    3.0891 H   0  0  0  0  0  0  0  0  0  0  0  0 
    4.0524   -0.3495    1.3145 H   0  0  0  0  0  0  0  0  0  0  0  0 
  1 11  1  0  0  0  0 
  1  3  1  0  0  0  0 
  2 15  1  0  0  0  0 
  2 13  1  0  0  0  0 
  3 16  1  0  0  0  0 
  3  9  1  0  0  0  0 
  4 18  1  0  0  0  0 
  4  5  1  0  0  0  0 
  4 19  1  0  0  0  0 
  5 20  1  0  0  0  0 
  5 21  1  0  0  0  0 
  6 23  1  0  0  0  0 
  6  4  1  0  0  0  0 
  7  8  1  0  0  0  0 
  8 26  1  6  0  0  0 
  8  2  1  0  0  0  0 
  8  5  1  0  0  0  0 
  9 27  1  6  0  0  0 
  9  7  1  0  0  0  0 
  9  6  1  0  0  0  0 
 10  1  1  0  0  0  0 
 12  1  1  0  0  0  0 
 14  2  1  0  0  0  0 
 17  3  1  0  0  0  0 
 22  6  1  0  0  0  0 
 24  7  1  0  0  0  0 
 25  7  1  0  0  0  0 
M  END 
>  <HBA> 
0 
 
>  <HBD> 
0 
 
>  <TPSA> 
0.0 
 
>  <cid> 
35412 
 
>  <dipole> 
0.1 
 
>  <excitation_energy_1> 
7.244 
 
>  <excitation_energy_2> 
7.345 
 
>  <excitation_energy_3> 
7.598 
 
>  <excitation_energy_4> 
7.638 
 
>  <homo_energy> 
-7.72 
 
>  <homo_lumo_gap> 
10.06 
 
>  <logP> 
3.223 
 
>  <lumo_energy> 
2.34 
 
>  <melting_point> 
-5.98 
 
>  <molecular_refractivity> 
43.26 
 
>  <oscillator_strength_1> 
0.0007 
 
>  <oscillator_strength_2> 
0.029 
 
>  <oscillator_strength_3> 
0.0157 
 
>  <oscillator_strength_4> 
0.0035 
 
>  <open_babel_can_smiles> 
CC[C@H]1CCC[C@H](C1)C 
 
>  <mulliken_charges> 
27 
1   -0.448771 
2   -0.444877 
3   -0.248673 
4   -0.263305 
5   -0.251924 
6   -0.259767 
7   -0.258559 
8   -0.073168 
9   -0.070836 
10   0.141207 
11   0.146389 
12   0.140211 
13   0.138412 
14   0.138156 
15   0.137757 
16   0.126065 
17   0.126926 
18   0.126109 
19   0.128223 
20   0.122577 
21   0.125564 
22   0.125659 
23   0.123347 
24   0.118708 
25   0.128319 
26   0.115543 
27   0.110711 
 
>  <lowdin_charges> 
27 
1   -0.443476 
2   -0.442378 
3   -0.268782 
4   -0.276792 
5   -0.275781 
6   -0.274992 
7   -0.278754 
8   -0.122616 
9   -0.126549 
10   0.149676 
11   0.145844 
12   0.14363 
13   0.146989 
14   0.147866 
15   0.14296 
16   0.135383 
17   0.138193 
18   0.134661 
19   0.143675 
20   0.133418 
21   0.140663 
22   0.140176 
23   0.133671 
24   0.132261 
25   0.142627 
26   0.130081 
27   0.128349 
 
$$$$ 
 
