PCCDB-ID:  66589 
public computational chemistry database (PCCDB) project, http://pccdb.org 
 
 20 21  0  0  0  0  0  0  0  0999 V2000 
    2.4991    0.9948   -0.1542 C   0  0  0  0  0  0  0  0  0  0  0  0 
    2.6050   -0.4115   -0.0353 C   0  0  0  0  0  0  0  0  0  0  0  0 
   -2.3519    0.6538   -0.0340 C   0  0  0  0  0  0  0  0  0  0  0  0 
    1.2606    1.5941   -0.1818 C   0  0  0  0  0  0  0  0  0  0  0  0 
   -1.2154    1.4244   -0.1217 C   0  0  0  0  0  0  0  0  0  0  0  0 
    1.4736   -1.1912    0.0581 C   0  0  0  0  0  0  0  0  0  0  0  0 
   -2.2594   -0.7495    0.0929 C   0  0  0  0  0  0  0  0  0  0  0  0 
   -0.8564   -3.7738    0.8590 C   0  0  0  0  0  0  0  0  0  0  0  0 
    0.0708    0.8225   -0.0900 C   0  0  0  0  0  0  0  0  0  0  0  0 
    0.1838   -0.6007    0.0367 C   0  0  0  0  0  0  0  0  0  0  0  0 
   -1.0227   -1.3654    0.1396 C   0  0  0  0  0  0  0  0  0  0  0  0 
   -0.9490   -2.7504    0.2427 N   0  0  0  0  0  0  0  0  0  0  0  0 
   -0.7706   -4.8415    1.3586 O   0  0  0  0  0  0  0  0  0  0  0  0 
    3.3993    1.5989   -0.2253 H   0  0  0  0  0  0  0  0  0  0  0  0 
    3.5861   -0.8780   -0.0189 H   0  0  0  0  0  0  0  0  0  0  0  0 
   -3.3333    1.1184   -0.0613 H   0  0  0  0  0  0  0  0  0  0  0  0 
    1.1728    2.6738   -0.2756 H   0  0  0  0  0  0  0  0  0  0  0  0 
   -1.2863    2.5046   -0.2190 H   0  0  0  0  0  0  0  0  0  0  0  0 
    1.5586   -2.2697    0.1415 H   0  0  0  0  0  0  0  0  0  0  0  0 
   -3.1558   -1.3575    0.1578 H   0  0  0  0  0  0  0  0  0  0  0  0 
  1  2  1  0  0  0  0 
  2 15  1  0  0  0  0 
  2  6  2  0  0  0  0 
  3  7  2  0  0  0  0 
  4  1  2  0  0  0  0 
  4  9  1  0  0  0  0 
  5  9  2  0  0  0  0 
  5  3  1  0  0  0  0 
  6 19  1  0  0  0  0 
  7 11  1  0  0  0  0 
  7 20  1  0  0  0  0 
  8 13  2  0  0  0  0 
  9 10  1  0  0  0  0 
 10  6  1  0  0  0  0 
 10 11  2  0  0  0  0 
 11 12  1  0  0  0  0 
 12  8  2  0  0  0  0 
 14  1  1  0  0  0  0 
 16  3  1  0  0  0  0 
 17  4  1  0  0  0  0 
 18  5  1  0  0  0  0 
M  END 
>  <HBA> 
2 
 
>  <HBD> 
0 
 
>  <TPSA> 
29.43 
 
>  <cid> 
66589 
 
>  <dipole> 
2.81 
 
>  <excitation_energy_1> 
4.097 
 
>  <excitation_energy_2> 
4.343 
 
>  <excitation_energy_3> 
5.161 
 
>  <excitation_energy_4> 
5.342 
 
>  <homo_energy> 
-5.913 
 
>  <homo_lumo_gap> 
4.52 
 
>  <logP> 
2.807 
 
>  <lumo_energy> 
-1.393 
 
>  <melting_point> 
106.8 
 
>  <molecular_refractivity> 
51.73 
 
>  <oscillator_strength_1> 
0.1435 
 
>  <oscillator_strength_2> 
0.0014 
 
>  <oscillator_strength_3> 
0.0041 
 
>  <oscillator_strength_4> 
0.0206 
 
>  <open_babel_can_smiles> 
O=C=Nc1cccc2c1cccc2 
 
>  <mulliken_charges> 
20 
1   -0.129346 
2   -0.135529 
3   -0.151315 
4   -0.195558 
5   -0.177287 
6   -0.178484 
7   -0.135219 
8   0.548732 
9   0.116367 
10   0.132725 
11   0.212796 
12   -0.464325 
13   -0.408271 
14   0.135219 
15   0.136431 
16   0.138705 
17   0.134597 
18   0.134095 
19   0.141352 
20   0.144316 
 
>  <lowdin_charges> 
20 
1   -0.154943 
2   -0.15181 
3   -0.152982 
4   -0.151281 
5   -0.155409 
6   -0.153157 
7   -0.16751 
8   0.182169 
9   0.004327 
10   -0.010691 
11   0.065811 
12   -0.129992 
13   -0.161061 
14   0.161829 
15   0.161558 
16   0.163302 
17   0.158084 
18   0.158959 
19   0.163514 
20   0.169285 
 
$$$$ 
 
