PCCDB-ID:  14504 
public computational chemistry database (PCCDB) project, http://pccdb.org 
 
 15 15  0  0  0  0  0  0  0  0999 V2000 
    0.9076    0.0541   -0.0382 C   0  0  0  0  0  0  0  0  0  0  0  0 
    4.4944   -0.6468   -0.1045 C   0  0  0  0  0  0  0  0  0  0  0  0 
    4.5047    0.7588   -0.1174 C   0  0  0  0  0  0  0  0  0  0  0  0 
    3.1608   -1.0366   -0.0747 C   0  0  0  0  0  0  0  0  0  0  0  0 
    2.6909    2.5560   -0.0982 C   0  0  0  0  0  0  0  0  0  0  0  0 
    3.1782    1.1955   -0.0951 C   0  0  0  0  0  0  0  0  0  0  0  0 
    2.3662    0.0683   -0.0696 N   0  0  0  0  0  0  0  0  0  0  0  0 
    1.5154    2.9031   -0.0784 O   0  0  0  0  0  0  0  0  0  0  0  0 
    0.5783   -0.9874   -0.0216 H   0  0  0  0  0  0  0  0  0  0  0  0 
    0.4994    0.5564   -0.9175 H   0  0  0  0  0  0  0  0  0  0  0  0 
    0.5373    0.5727    0.8484 H   0  0  0  0  0  0  0  0  0  0  0  0 
    5.3472   -1.3113   -0.1154 H   0  0  0  0  0  0  0  0  0  0  0  0 
    5.3702    1.4083   -0.1404 H   0  0  0  0  0  0  0  0  0  0  0  0 
    2.7227   -2.0254   -0.0575 H   0  0  0  0  0  0  0  0  0  0  0  0 
    3.5059    3.3114   -0.1209 H   0  0  0  0  0  0  0  0  0  0  0  0 
  1  9  1  0  0  0  0 
  1 11  1  0  0  0  0 
  2  4  2  0  0  0  0 
  3  2  1  0  0  0  0 
  3  6  2  0  0  0  0 
  4  7  1  0  0  0  0 
  4 14  1  0  0  0  0 
  5  6  1  0  0  0  0 
  5  8  2  0  0  0  0 
  6  7  1  0  0  0  0 
  7  1  1  0  0  0  0 
 10  1  1  0  0  0  0 
 12  2  1  0  0  0  0 
 13  3  1  0  0  0  0 
 15  5  1  0  0  0  0 
M  END 
>  <HBA> 
2 
 
>  <HBD> 
0 
 
>  <TPSA> 
22.0 
 
>  <cid> 
14504 
 
>  <dipole> 
2.83 
 
>  <excitation_energy_1> 
3.946 
 
>  <excitation_energy_2> 
4.804 
 
>  <excitation_energy_3> 
5.079 
 
>  <excitation_energy_4> 
5.734 
 
>  <homo_energy> 
-6.172 
 
>  <homo_lumo_gap> 
5.064 
 
>  <logP> 
0.838 
 
>  <lumo_energy> 
-1.108 
 
>  <melting_point> 
40.25 
 
>  <molecular_refractivity> 
31.08 
 
>  <oscillator_strength_1> 
0.0002 
 
>  <oscillator_strength_2> 
0.2195 
 
>  <oscillator_strength_3> 
0.191 
 
>  <oscillator_strength_4> 
0.006 
 
>  <open_babel_can_smiles> 
O=Cc1cccn1C 
 
>  <mulliken_charges> 
15 
1   -0.304382 
2   -0.193196 
3   -0.196284 
4   0.049959 
5   0.18687 
6   0.27109 
7   -0.439083 
8   -0.451641 
9   0.154827 
10   0.192165 
11   0.192112 
12   0.136836 
13   0.141711 
14   0.154315 
15   0.1047 
 
>  <lowdin_charges> 
15 
1   -0.341589 
2   -0.213362 
3   -0.178682 
4   -0.123564 
5   0.027139 
6   -0.051165 
7   0.019587 
8   -0.268892 
9   0.156977 
10   0.174551 
11   0.174444 
12   0.16647 
13   0.16799 
14   0.166348 
15   0.123748 
 
$$$$ 
 
