PCCDB-ID:  22892 
public computational chemistry database (PCCDB) project, http://pccdb.org 
 
 21 21  0  0  0  0  0  0  0  0999 V2000 
    0.9600   -0.0546   -0.2138 C   0  0  0  0  0  0  0  0  0  0  0  0 
    3.1988    1.1360   -0.1452 C   0  0  0  0  0  0  0  0  0  0  0  0 
    3.1956   -1.2382   -0.0807 C   0  0  0  0  0  0  0  0  0  0  0  0 
    2.4685   -0.0495   -0.1414 C   0  0  0  0  0  0  0  0  0  0  0  0 
    4.5927    1.1522   -0.0953 C   0  0  0  0  0  0  0  0  0  0  0  0 
    4.5874   -1.2565   -0.0292 C   0  0  0  0  0  0  0  0  0  0  0  0 
    5.3722   -0.0521   -0.0356 C   0  0  0  0  0  0  0  0  0  0  0  0 
    6.7109   -0.0540    0.0115 N   0  0  0  0  0  0  0  0  0  0  0  0 
    5.2170    2.4688   -0.1058 N   0  0  0  0  0  0  0  0  0  0  0  0 
    5.2074   -2.5751    0.0328 N   0  0  0  0  0  0  0  0  0  0  0  0 
    4.4888    3.4593   -0.1543 O   0  0  0  0  0  0  0  0  0  0  0  0 
    6.4577    2.5523   -0.0675 O   0  0  0  0  0  0  0  0  0  0  0  0 
    4.4756   -3.5639    0.0329 O   0  0  0  0  0  0  0  0  0  0  0  0 
    6.4471   -2.6605    0.0823 O   0  0  0  0  0  0  0  0  0  0  0  0 
    0.5528    0.9442   -0.0308 H   0  0  0  0  0  0  0  0  0  0  0  0 
    0.5266   -0.7357    0.5269 H   0  0  0  0  0  0  0  0  0  0  0  0 
    0.6076   -0.3800   -1.2006 H   0  0  0  0  0  0  0  0  0  0  0  0 
    2.6958    2.0946   -0.1869 H   0  0  0  0  0  0  0  0  0  0  0  0 
    2.6890   -2.1961   -0.0701 H   0  0  0  0  0  0  0  0  0  0  0  0 
    7.1856    0.8394    0.0027 H   0  0  0  0  0  0  0  0  0  0  0  0 
    7.1824   -0.9479    0.0539 H   0  0  0  0  0  0  0  0  0  0  0  0 
  1  4  1  0  0  0  0 
  1 15  1  0  0  0  0 
  1 16  1  0  0  0  0 
  2  4  2  0  0  0  0 
  2  5  1  0  0  0  0 
  3 19  1  0  0  0  0 
  3  6  2  0  0  0  0 
  4  3  1  0  0  0  0 
  5  7  2  0  0  0  0 
  6 10  1  0  0  0  0 
  7  6  1  0  0  0  0 
  7  8  1  0  0  0  0 
  8 21  1  0  0  0  0 
  9  5  1  0  0  0  0 
  9 12  2  0  0  0  0 
 10 13  2  0  0  0  0 
 10 14  2  0  0  0  0 
 11  9  2  0  0  0  0 
 17  1  1  0  0  0  0 
 18  2  1  0  0  0  0 
 20  8  1  0  0  0  0 
M  END 
>  <HBA> 
1 
 
>  <HBD> 
1 
 
>  <TPSA> 
117.66 
 
>  <cid> 
22892 
 
>  <dipole> 
2.39 
 
>  <excitation_energy_1> 
2.997 
 
>  <excitation_energy_2> 
3.668 
 
>  <excitation_energy_3> 
3.714 
 
>  <excitation_energy_4> 
3.801 
 
>  <homo_energy> 
-6.604 
 
>  <homo_lumo_gap> 
3.576 
 
>  <logP> 
3.021 
 
>  <lumo_energy> 
-3.029 
 
>  <melting_point> 
136.91 
 
>  <molecular_refractivity> 
53.46 
 
>  <oscillator_strength_1> 
0.1686 
 
>  <oscillator_strength_2> 
0.0 
 
>  <oscillator_strength_3> 
0.0008 
 
>  <oscillator_strength_4> 
0.0 
 
>  <open_babel_can_smiles> 
Cc1cc(N(=O)=O)c(c(c1)N(=O)=O)N 
 
>  <mulliken_charges> 
21 
1   -0.531126 
2   -0.214865 
3   -0.209333 
4   0.169293 
5   0.24912 
6   0.248137 
7   0.337979 
8   -0.821761 
9   0.375357 
10   0.376457 
11   -0.394816 
12   -0.435787 
13   -0.394096 
14   -0.434363 
15   0.168582 
16   0.172074 
17   0.176551 
18   0.191638 
19   0.192309 
20   0.38946 
21   0.389192 
 
>  <lowdin_charges> 
21 
1   -0.43986 
2   -0.113502 
3   -0.109957 
4   -0.022232 
5   -0.043211 
6   -0.041282 
7   0.097354 
8   -0.422621 
9   0.312411 
10   0.31237 
11   -0.245055 
12   -0.274047 
13   -0.244195 
14   -0.272624 
15   0.164254 
16   0.167717 
17   0.167544 
18   0.192574 
19   0.193007 
20   0.310778 
21   0.310579 
 
$$$$ 
 
