PCCDB-ID:  7201 
public computational chemistry database (PCCDB) project, http://pccdb.org 
 
 23 23  0  0  0  0  0  0  0  0999 V2000 
    1.2346   -1.0933    0.6271 C   0  0  0  0  0  0  0  0  0  0  0  0 
    5.7674   -3.0816    1.0831 C   0  0  0  0  0  0  0  0  0  0  0  0 
    2.4978   -0.2982    0.9483 C   0  0  0  0  0  0  0  0  0  0  0  0 
    7.5163    0.1999    1.9740 C   0  0  0  0  0  0  0  0  0  0  0  0 
    6.4412    1.0842    1.9968 C   0  0  0  0  0  0  0  0  0  0  0  0 
    7.2784   -1.1433    1.6701 C   0  0  0  0  0  0  0  0  0  0  0  0 
    5.1496    0.6371    1.7156 C   0  0  0  0  0  0  0  0  0  0  0  0 
    5.9987   -1.6226    1.3926 C   0  0  0  0  0  0  0  0  0  0  0  0 
    4.9082   -0.7144    1.4149 C   0  0  0  0  0  0  0  0  0  0  0  0 
    3.6193   -1.1970    1.1771 N   0  0  0  0  0  0  0  0  0  0  0  0 
    0.3812   -0.4211    0.4930 H   0  0  0  0  0  0  0  0  0  0  0  0 
    1.0004   -1.7936    1.4359 H   0  0  0  0  0  0  0  0  0  0  0  0 
    1.3525   -1.6683   -0.3003 H   0  0  0  0  0  0  0  0  0  0  0  0 
    6.6957   -3.6527    1.1771 H   0  0  0  0  0  0  0  0  0  0  0  0 
    5.3966   -3.2386    0.0582 H   0  0  0  0  0  0  0  0  0  0  0  0 
    5.0280   -3.5273    1.7623 H   0  0  0  0  0  0  0  0  0  0  0  0 
    2.3328    0.2934    1.8576 H   0  0  0  0  0  0  0  0  0  0  0  0 
    2.7062    0.4221    0.1374 H   0  0  0  0  0  0  0  0  0  0  0  0 
    8.5238    0.5433    2.1899 H   0  0  0  0  0  0  0  0  0  0  0  0 
    6.5999    2.1348    2.2272 H   0  0  0  0  0  0  0  0  0  0  0  0 
    8.1095   -1.8455    1.6510 H   0  0  0  0  0  0  0  0  0  0  0  0 
    4.3278    1.3449    1.7295 H   0  0  0  0  0  0  0  0  0  0  0  0 
    3.5940   -2.0201    0.5883 H   0  0  0  0  0  0  0  0  0  0  0  0 
  1  3  1  0  0  0  0 
  1 12  1  0  0  0  0 
  2 14  1  0  0  0  0 
  2  8  1  0  0  0  0 
  2 16  1  0  0  0  0 
  3 10  1  0  0  0  0 
  3 17  1  0  0  0  0 
  4  5  1  0  0  0  0 
  4 19  1  0  0  0  0 
  5 20  1  0  0  0  0 
  6  4  2  0  0  0  0 
  7 22  1  0  0  0  0 
  7  5  2  0  0  0  0 
  8  9  2  0  0  0  0 
  8  6  1  0  0  0  0 
  9  7  1  0  0  0  0 
 10  9  1  0  0  0  0 
 11  1  1  0  0  0  0 
 13  1  1  0  0  0  0 
 15  2  1  0  0  0  0 
 18  3  1  0  0  0  0 
 21  6  1  0  0  0  0 
 23 10  1  0  0  0  0 
M  END 
>  <HBA> 
1 
 
>  <HBD> 
1 
 
>  <TPSA> 
12.03 
 
>  <cid> 
7201 
 
>  <dipole> 
1.9 
 
>  <excitation_energy_1> 
4.666 
 
>  <excitation_energy_2> 
4.678 
 
>  <excitation_energy_3> 
5.026 
 
>  <excitation_energy_4> 
5.201 
 
>  <homo_energy> 
-5.119 
 
>  <homo_lumo_gap> 
5.54 
 
>  <logP> 
2.5 
 
>  <lumo_energy> 
0.422 
 
>  <melting_point> 
42.04 
 
>  <molecular_refractivity> 
45.52 
 
>  <oscillator_strength_1> 
0.0247 
 
>  <oscillator_strength_2> 
0.034 
 
>  <oscillator_strength_3> 
0.0113 
 
>  <oscillator_strength_4> 
0.0216 
 
>  <open_babel_can_smiles> 
CCNc1ccccc1C 
 
>  <mulliken_charges> 
23 
1   -0.470407 
2   -0.554025 
3   -0.099472 
4   -0.131785 
5   -0.143039 
6   -0.19935 
7   -0.18258 
8   0.150382 
9   0.288657 
10   -0.662647 
11   0.155042 
12   0.161959 
13   0.144768 
14   0.158795 
15   0.146822 
16   0.164172 
17   0.152946 
18   0.134834 
19   0.116487 
20   0.119857 
21   0.114261 
22   0.121041 
23   0.313282 
 
>  <lowdin_charges> 
23 
1   -0.450362 
2   -0.446945 
3   -0.192743 
4   -0.187812 
5   -0.150404 
6   -0.162383 
7   -0.211579 
8   -0.037504 
9   0.049151 
10   -0.304212 
11   0.159442 
12   0.157786 
13   0.147715 
14   0.160547 
15   0.147302 
16   0.159112 
17   0.147546 
18   0.130654 
19   0.152383 
20   0.151929 
21   0.151674 
22   0.156996 
23   0.271707 
 
$$$$ 
 
