PCCDB-ID:  66311 
public computational chemistry database (PCCDB) project, http://pccdb.org 
 
 21 20  0  0  0  0  0  0  0  0999 V2000 
    1.1597   -1.9490    3.1115 C   0  0  0  0  0  0  0  0  0  0  0  0 
    8.1185   -1.9829    1.5408 C   0  0  0  0  0  0  0  0  0  0  0  0 
    2.1903   -1.6154    2.0798 C   0  0  0  0  0  0  0  0  0  0  0  0 
    7.3986   -1.3175    0.3640 C   0  0  0  0  0  0  0  0  0  0  0  0 
    3.4240   -1.1630    2.3357 C   0  0  0  0  0  0  0  0  0  0  0  0 
    6.5742   -0.0959    0.7616 C   0  0  0  0  0  0  0  0  0  0  0  0 
    4.3658   -0.8641    1.2336 C   0  0  0  0  0  0  0  0  0  0  0  0 
    4.1297   -0.9817    0.0456 O   0  0  0  0  0  0  0  0  0  0  0  0 
    5.5521   -0.4281    1.7295 O   0  0  0  0  0  0  0  0  0  0  0  0 
    0.8479   -2.9985    3.0239 H   0  0  0  0  0  0  0  0  0  0  0  0 
    0.2549   -1.3435    2.9667 H   0  0  0  0  0  0  0  0  0  0  0  0 
    1.5276   -1.7820    4.1286 H   0  0  0  0  0  0  0  0  0  0  0  0 
    8.6903   -2.8562    1.2084 H   0  0  0  0  0  0  0  0  0  0  0  0 
    7.4040   -2.3160    2.3005 H   0  0  0  0  0  0  0  0  0  0  0  0 
    8.8180   -1.2884    2.0226 H   0  0  0  0  0  0  0  0  0  0  0  0 
    1.9137   -1.7514    1.0346 H   0  0  0  0  0  0  0  0  0  0  0  0 
    6.7386   -2.0342   -0.1381 H   0  0  0  0  0  0  0  0  0  0  0  0 
    8.1303   -0.9880   -0.3868 H   0  0  0  0  0  0  0  0  0  0  0  0 
    3.7811   -1.0004    3.3491 H   0  0  0  0  0  0  0  0  0  0  0  0 
    6.0977    0.3552   -0.1122 H   0  0  0  0  0  0  0  0  0  0  0  0 
    7.1933    0.6509    1.2680 H   0  0  0  0  0  0  0  0  0  0  0  0 
  1 12  1  0  0  0  0 
  2 15  1  0  0  0  0 
  2 14  1  0  0  0  0 
  3  5  2  0  0  0  0 
  3  1  1  0  0  0  0 
  4  6  1  0  0  0  0 
  4  2  1  0  0  0  0 
  5 19  1  0  0  0  0 
  6 21  1  0  0  0  0 
  6  9  1  0  0  0  0 
  7  9  1  0  0  0  0 
  7  5  1  0  0  0  0 
  8  7  2  0  0  0  0 
 10  1  1  0  0  0  0 
 11  1  1  0  0  0  0 
 13  2  1  0  0  0  0 
 16  3  1  0  0  0  0 
 17  4  1  0  0  0  0 
 18  4  1  0  0  0  0 
 20  6  1  0  0  0  0 
M  END 
>  <HBA> 
2 
 
>  <HBD> 
0 
 
>  <TPSA> 
26.3 
 
>  <cid> 
66311 
 
>  <dipole> 
1.57 
 
>  <excitation_energy_1> 
4.859 
 
>  <excitation_energy_2> 
6.0 
 
>  <excitation_energy_3> 
6.261 
 
>  <excitation_energy_4> 
6.824 
 
>  <homo_energy> 
-7.217 
 
>  <homo_lumo_gap> 
6.272 
 
>  <logP> 
1.516 
 
>  <lumo_energy> 
-0.944 
 
>  <melting_point> 
-5.0 
 
>  <molecular_refractivity> 
36.57 
 
>  <oscillator_strength_1> 
0.0002 
 
>  <oscillator_strength_2> 
0.4585 
 
>  <oscillator_strength_3> 
0.1242 
 
>  <oscillator_strength_4> 
0.0061 
 
>  <open_babel_can_smiles> 
CCCOC(=O)/C=C/C 
 
>  <mulliken_charges> 
21 
1   -0.498275 
2   -0.442355 
3   -0.054307 
4   -0.274337 
5   -0.186887 
6   -0.044802 
7   0.613628 
8   -0.500871 
9   -0.479284 
10   0.168816 
11   0.169145 
12   0.161667 
13   0.145774 
14   0.157235 
15   0.139969 
16   0.166208 
17   0.164319 
18   0.137733 
19   0.142686 
20   0.168417 
21   0.145521 
 
>  <lowdin_charges> 
21 
1   -0.437276 
2   -0.449796 
3   -0.093959 
4   -0.286731 
5   -0.212521 
6   -0.135339 
7   0.194668 
8   -0.282042 
9   -0.197403 
10   0.165278 
11   0.166853 
12   0.15857 
13   0.152328 
14   0.154944 
15   0.147266 
16   0.170595 
17   0.15853 
18   0.150252 
19   0.16463 
20   0.16069 
21   0.150463 
 
$$$$ 
 
