PCCDB-ID:  33033 
public computational chemistry database (PCCDB) project, http://pccdb.org 
 
 28 29  0  0  0  0  0  0  0  0999 V2000 
    0.8892    2.1598    0.9217 C   0  0  0  0  0  0  0  0  0  0  0  0 
    2.5882    2.0080    2.6122 C   0  0  0  0  0  0  0  0  0  0  0  0 
    7.7348   -1.4994   -0.0572 C   0  0  0  0  0  0  0  0  0  0  0  0 
    7.8543   -0.1197   -0.0315 C   0  0  0  0  0  0  0  0  0  0  0  0 
    5.2965   -1.3626    0.1900 C   0  0  0  0  0  0  0  0  0  0  0  0 
    6.3797   -3.5523    0.0246 C   0  0  0  0  0  0  0  0  0  0  0  0 
    5.1478    2.2701    0.3052 C   0  0  0  0  0  0  0  0  0  0  0  0 
    2.9378    0.9709    0.4497 C   0  0  0  0  0  0  0  0  0  0  0  0 
    6.4638   -2.1221    0.0538 C   0  0  0  0  0  0  0  0  0  0  0  0 
    4.4332    1.1010    0.3467 C   0  0  0  0  0  0  0  0  0  0  0  0 
    5.3949    0.0337    0.2189 C   0  0  0  0  0  0  0  0  0  0  0  0 
    6.6831    0.6351    0.1040 C   0  0  0  0  0  0  0  0  0  0  0  0 
    6.3145   -4.7143    0.0006 N   0  0  0  0  0  0  0  0  0  0  0  0 
    6.4980    1.9952    0.1601 N   0  0  0  0  0  0  0  0  0  0  0  0 
    2.3219    2.0821    1.1790 N   0  0  0  0  0  0  0  0  0  0  0  0 
    0.4716    3.0283    1.4425 H   0  0  0  0  0  0  0  0  0  0  0  0 
    0.3347    1.2627    1.2606 H   0  0  0  0  0  0  0  0  0  0  0  0 
    0.7090    2.2869   -0.1513 H   0  0  0  0  0  0  0  0  0  0  0  0 
    2.1905    2.9013    3.1057 H   0  0  0  0  0  0  0  0  0  0  0  0 
    3.6664    1.9683    2.7886 H   0  0  0  0  0  0  0  0  0  0  0  0 
    2.1285    1.1194    3.0882 H   0  0  0  0  0  0  0  0  0  0  0  0 
    8.6174   -2.1216   -0.1611 H   0  0  0  0  0  0  0  0  0  0  0  0 
    8.8275    0.3556   -0.1175 H   0  0  0  0  0  0  0  0  0  0  0  0 
    4.3358   -1.8612    0.2706 H   0  0  0  0  0  0  0  0  0  0  0  0 
    4.7899    3.2870    0.3741 H   0  0  0  0  0  0  0  0  0  0  0  0 
    2.6793   -0.0091    0.9006 H   0  0  0  0  0  0  0  0  0  0  0  0 
    2.5018    0.9597   -0.5587 H   0  0  0  0  0  0  0  0  0  0  0  0 
    7.2305    2.6871    0.1260 H   0  0  0  0  0  0  0  0  0  0  0  0 
  1 15  1  0  0  0  0 
  1 17  1  0  0  0  0 
  1 16  1  0  0  0  0 
  2 20  1  0  0  0  0 
  2 21  1  0  0  0  0 
  2 19  1  0  0  0  0 
  3  4  2  0  0  0  0 
  3  9  1  0  0  0  0 
  4 12  1  0  0  0  0 
  5 11  1  0  0  0  0 
  5 24  1  0  0  0  0 
  6  9  1  0  0  0  0 
  7 10  2  0  0  0  0 
  7 25  1  0  0  0  0 
  8 26  1  0  0  0  0 
  8 15  1  0  0  0  0 
  9  5  2  0  0  0  0 
 10  8  1  0  0  0  0 
 11 10  1  0  0  0  0 
 12 14  1  0  0  0  0 
 12 11  2  0  0  0  0 
 13  6  3  0  0  0  0 
 14  7  1  0  0  0  0 
 15  2  1  0  0  0  0 
 18  1  1  0  0  0  0 
 22  3  1  0  0  0  0 
 23  4  1  0  0  0  0 
 27  8  1  0  0  0  0 
 28 14  1  0  0  0  0 
M  END 
>  <HBA> 
2 
 
>  <HBD> 
1 
 
>  <TPSA> 
42.82 
 
>  <cid> 
33033 
 
>  <dipole> 
6.89 
 
>  <excitation_energy_1> 
4.243 
 
>  <excitation_energy_2> 
4.401 
 
>  <excitation_energy_3> 
4.546 
 
>  <excitation_energy_4> 
4.951 
 
>  <homo_energy> 
-5.864 
 
>  <homo_lumo_gap> 
4.972 
 
>  <logP> 
2.101 
 
>  <lumo_energy> 
-0.893 
 
>  <melting_point> 
139.81 
 
>  <molecular_refractivity> 
60.49 
 
>  <oscillator_strength_1> 
0.0209 
 
>  <oscillator_strength_2> 
0.0032 
 
>  <oscillator_strength_3> 
0.0057 
 
>  <oscillator_strength_4> 
0.007 
 
>  <open_babel_can_smiles> 
N#Cc1ccc2c(c1)c(c[nH]2)CN(C)C 
 
>  <mulliken_charges> 
28 
1   -0.294302 
2   -0.303925 
3   -0.166406 
4   -0.161718 
5   -0.229993 
6   0.227185 
7   0.015598 
8   -0.19257 
9   0.127251 
10   0.061051 
11   0.074808 
12   0.333112 
13   -0.491666 
14   -0.695917 
15   -0.373386 
16   0.150138 
17   0.121621 
18   0.150569 
19   0.148174 
20   0.158285 
21   0.121439 
22   0.151636 
23   0.136016 
24   0.153616 
25   0.169372 
26   0.122168 
27   0.15475 
28   0.333092 
 
>  <lowdin_charges> 
28 
1   -0.356196 
2   -0.360516 
3   -0.146479 
4   -0.179962 
5   -0.137464 
6   -0.016638 
7   -0.11826 
8   -0.189312 
9   -0.036298 
10   -0.063767 
11   -0.032936 
12   0.042977 
13   -0.136028 
14   -0.194973 
15   -0.183393 
16   0.151883 
17   0.123464 
18   0.148467 
19   0.150341 
20   0.153441 
21   0.12328 
22   0.17259 
23   0.163015 
24   0.171538 
25   0.17544 
26   0.125523 
27   0.154266 
28   0.295997 
 
$$$$ 
 
