PCCDB-ID:  19147 
public computational chemistry database (PCCDB) project, http://pccdb.org 
 
 39 39  0  0  0  0  0  0  0  0999 V2000 
   -0.0322    1.7185   -3.5322 C   0  0  0  0  0  0  0  0  0  0  0  0 
    1.3075    1.0178   -3.2819 C   0  0  0  0  0  0  0  0  0  0  0  0 
    1.4910    0.5867   -1.8198 C   0  0  0  0  0  0  0  0  0  0  0  0 
    2.7873   -0.1887   -1.5311 C   0  0  0  0  0  0  0  0  0  0  0  0 
    4.0773    0.6241   -1.7118 C   0  0  0  0  0  0  0  0  0  0  0  0 
    5.3426   -0.1615   -1.3421 C   0  0  0  0  0  0  0  0  0  0  0  0 
    6.6331    0.6490   -1.5143 C   0  0  0  0  0  0  0  0  0  0  0  0 
    7.9021   -0.1477   -1.1462 C   0  0  0  0  0  0  0  0  0  0  0  0 
    9.6482    1.4584   -0.2508 C   0  0  0  0  0  0  0  0  0  0  0  0 
    9.8749    0.6701   -2.5153 C   0  0  0  0  0  0  0  0  0  0  0  0 
   10.7896    2.2374   -0.4030 C   0  0  0  0  0  0  0  0  0  0  0  0 
   11.0190    1.4463   -2.6786 C   0  0  0  0  0  0  0  0  0  0  0  0 
    9.1696    0.6625   -1.3031 C   0  0  0  0  0  0  0  0  0  0  0  0 
   11.4849    2.2379   -1.6199 C   0  0  0  0  0  0  0  0  0  0  0  0 
   12.6969    3.0861   -1.7333 C   0  0  0  0  0  0  0  0  0  0  0  0 
   13.2890    3.0114   -2.9555 O   0  0  0  0  0  0  0  0  0  0  0  0 
   13.1447    3.7888   -0.8480 O   0  0  0  0  0  0  0  0  0  0  0  0 
   -0.1387    2.0185   -4.5809 H   0  0  0  0  0  0  0  0  0  0  0  0 
   -0.1270    2.6214   -2.9162 H   0  0  0  0  0  0  0  0  0  0  0  0 
   -0.8755    1.0618   -3.2853 H   0  0  0  0  0  0  0  0  0  0  0  0 
    2.1248    1.6876   -3.5800 H   0  0  0  0  0  0  0  0  0  0  0  0 
    1.3860    0.1335   -3.9309 H   0  0  0  0  0  0  0  0  0  0  0  0 
    0.6351   -0.0389   -1.5286 H   0  0  0  0  0  0  0  0  0  0  0  0 
    1.4489    1.4759   -1.1728 H   0  0  0  0  0  0  0  0  0  0  0  0 
    2.8265   -1.0801   -2.1753 H   0  0  0  0  0  0  0  0  0  0  0  0 
    2.7503   -0.5639   -0.4984 H   0  0  0  0  0  0  0  0  0  0  0  0 
    4.0212    1.5330   -1.0940 H   0  0  0  0  0  0  0  0  0  0  0  0 
    4.1624    0.9685   -2.7515 H   0  0  0  0  0  0  0  0  0  0  0  0 
    5.3986   -1.0714   -1.9582 H   0  0  0  0  0  0  0  0  0  0  0  0 
    5.2659   -0.5061   -0.3001 H   0  0  0  0  0  0  0  0  0  0  0  0 
    6.5861    1.5549   -0.8940 H   0  0  0  0  0  0  0  0  0  0  0  0 
    6.7166    0.9965   -2.5534 H   0  0  0  0  0  0  0  0  0  0  0  0 
    7.9569   -1.0451   -1.7763 H   0  0  0  0  0  0  0  0  0  0  0  0 
    7.8159   -0.4980   -0.1091 H   0  0  0  0  0  0  0  0  0  0  0  0 
    9.1188    1.4607    0.6994 H   0  0  0  0  0  0  0  0  0  0  0  0 
    9.5236    0.0548   -3.3406 H   0  0  0  0  0  0  0  0  0  0  0  0 
   11.1620    2.8521    0.4100 H   0  0  0  0  0  0  0  0  0  0  0  0 
   11.5564    1.4389   -3.6206 H   0  0  0  0  0  0  0  0  0  0  0  0 
   14.0616    3.6039   -2.9055 H   0  0  0  0  0  0  0  0  0  0  0  0 
  1 20  1  0  0  0  0 
  1  2  1  0  0  0  0 
  1 19  1  0  0  0  0 
  2  3  1  0  0  0  0 
  3  4  1  0  0  0  0 
  3 23  1  0  0  0  0 
  3 24  1  0  0  0  0 
  4 26  1  0  0  0  0 
  5  4  1  0  0  0  0 
  5  6  1  0  0  0  0 
  5 27  1  0  0  0  0 
  6 30  1  0  0  0  0 
  7  6  1  0  0  0  0 
  7  8  1  0  0  0  0 
  7 31  1  0  0  0  0 
  8 34  1  0  0  0  0 
  9 35  1  0  0  0  0 
 10 13  1  0  0  0  0 
 11  9  1  0  0  0  0 
 11 37  1  0  0  0  0 
 12 10  2  0  0  0  0 
 12 14  1  0  0  0  0 
 13  8  1  0  0  0  0 
 13  9  2  0  0  0  0 
 14 11  2  0  0  0  0 
 15 14  1  0  0  0  0 
 15 17  2  0  0  0  0 
 16 39  1  0  0  0  0 
 16 15  1  0  0  0  0 
 18  1  1  0  0  0  0 
 21  2  1  0  0  0  0 
 22  2  1  0  0  0  0 
 25  4  1  0  0  0  0 
 28  5  1  0  0  0  0 
 29  6  1  0  0  0  0 
 32  7  1  0  0  0  0 
 33  8  1  0  0  0  0 
 36 10  1  0  0  0  0 
 38 12  1  0  0  0  0 
M  END 
>  <HBA> 
2 
 
>  <HBD> 
1 
 
>  <TPSA> 
37.3 
 
>  <cid> 
19147 
 
>  <dipole> 
2.47 
 
>  <excitation_energy_1> 
4.859 
 
>  <excitation_energy_2> 
4.907 
 
>  <excitation_energy_3> 
5.138 
 
>  <excitation_energy_4> 
6.176 
 
>  <homo_energy> 
-6.778 
 
>  <homo_lumo_gap> 
5.587 
 
>  <logP> 
4.288 
 
>  <lumo_energy> 
-1.192 
 
>  <melting_point> 
94.83 
 
>  <molecular_refractivity> 
72.02 
 
>  <oscillator_strength_1> 
0.0153 
 
>  <oscillator_strength_2> 
0.0003 
 
>  <oscillator_strength_3> 
0.4291 
 
>  <oscillator_strength_4> 
0.1426 
 
>  <open_babel_can_smiles> 
CCCCCCCCc1ccc(cc1)C(=O)O 
 
>  <mulliken_charges> 
39 
1   -0.44154 
2   -0.248604 
3   -0.247727 
4   -0.25517 
5   -0.254689 
6   -0.252212 
7   -0.251437 
8   -0.351602 
9   -0.18794 
10   -0.187235 
11   -0.15559 
12   -0.160594 
13   0.183438 
14   0.069634 
15   0.534424 
16   -0.585019 
17   -0.477662 
18   0.141527 
19   0.141681 
20   0.141197 
21   0.13546 
22   0.128701 
23   0.127034 
24   0.126113 
25   0.126323 
26   0.127131 
27   0.128043 
28   0.134155 
29   0.12898 
30   0.128854 
31   0.137867 
32   0.137088 
33   0.143161 
34   0.144162 
35   0.130575 
36   0.129281 
37   0.162984 
38   0.158826 
39   0.410381 
 
>  <lowdin_charges> 
39 
1   -0.443683 
2   -0.276022 
3   -0.27645 
4   -0.274278 
5   -0.275198 
6   -0.273378 
7   -0.26985 
8   -0.273063 
9   -0.167492 
10   -0.169496 
11   -0.127894 
12   -0.135962 
13   0.019846 
14   -0.054374 
15   0.196519 
16   -0.364833 
17   -0.276381 
18   0.14791 
19   0.146636 
20   0.146578 
21   0.140932 
22   0.138318 
23   0.140916 
24   0.137524 
25   0.137491 
26   0.139155 
27   0.138195 
28   0.138911 
29   0.138495 
30   0.136978 
31   0.143348 
32   0.141728 
33   0.149716 
34   0.148968 
35   0.158218 
36   0.158599 
37   0.17764 
38   0.172987 
39   0.362745 
 
$$$$ 
 
