PCCDB-ID:  30241 
public computational chemistry database (PCCDB) project, http://pccdb.org 
 
 31 32  0  0  1  0  0  0  0  0999 V2000 
    2.1638    0.3059   -1.4337 C   0  0  0  0  0  0  0  0  0  0  0  0 
   -0.8872   -6.0002   -1.2731 C   0  0  0  0  0  0  0  0  0  0  0  0 
    1.7110   -5.4020   -0.3227 C   0  0  0  0  0  0  0  0  0  0  0  0 
    2.9801   -5.0660    0.1427 C   0  0  0  0  0  0  0  0  0  0  0  0 
    1.1017   -3.0454   -0.5134 C   0  0  0  0  0  0  0  0  0  0  0  0 
    1.2997    0.2456    0.9704 C   0  0  0  0  0  0  0  0  0  0  0  0 
    4.2927   -1.7375    0.6663 C   0  0  0  0  0  0  0  0  0  0  0  0 
    2.4997   -0.0205    0.0337 C   0  0  1  0  0  0  0  0  0  0  0  0 
    0.7776   -4.3943   -0.6482 C   0  0  0  0  0  0  0  0  0  0  0  0 
    2.3758   -2.6833   -0.0484 C   0  0  0  0  0  0  0  0  0  0  0  0 
    3.0367   -1.4203    0.2115 C   0  0  0  0  0  0  0  0  0  0  0  0 
    3.3019   -3.7165    0.2757 C   0  0  0  0  0  0  0  0  0  0  0  0 
    0.8913    1.6559    0.9198 N   0  0  0  0  0  0  0  0  0  0  0  0 
    4.4637   -3.1072    0.7112 N   0  0  0  0  0  0  0  0  0  0  0  0 
   -0.4916   -4.6522   -1.1108 O   0  0  0  0  0  0  0  0  0  0  0  0 
    1.7610    1.3194   -1.5105 H   0  0  0  0  0  0  0  0  0  0  0  0 
    1.4154   -0.3884   -1.8321 H   0  0  0  0  0  0  0  0  0  0  0  0 
    3.0575    0.2240   -2.0620 H   0  0  0  0  0  0  0  0  0  0  0  0 
   -1.9142   -5.9696   -1.6435 H   0  0  0  0  0  0  0  0  0  0  0  0 
   -0.8647   -6.5513   -0.3223 H   0  0  0  0  0  0  0  0  0  0  0  0 
   -0.2576   -6.5268   -2.0042 H   0  0  0  0  0  0  0  0  0  0  0  0 
    1.4518   -6.4486   -0.4301 H   0  0  0  0  0  0  0  0  0  0  0  0 
    3.6950   -5.8456    0.3939 H   0  0  0  0  0  0  0  0  0  0  0  0 
    0.3516   -2.3071   -0.7760 H   0  0  0  0  0  0  0  0  0  0  0  0 
    1.5660   -0.1055    1.9827 H   0  0  0  0  0  0  0  0  0  0  0  0 
    0.4436   -0.3581    0.6465 H   0  0  0  0  0  0  0  0  0  0  0  0 
    5.0951   -1.0759    0.9657 H   0  0  0  0  0  0  0  0  0  0  0  0 
    3.3001    0.6686    0.3487 H   0  0  0  0  0  0  0  0  0  0  0  0 
    1.5992    2.2302    1.3776 H   0  0  0  0  0  0  0  0  0  0  0  0 
    0.0367    1.7849    1.4589 H   0  0  0  0  0  0  0  0  0  0  0  0 
    5.3052   -3.5830    0.9941 H   0  0  0  0  0  0  0  0  0  0  0  0 
  1  8  1  0  0  0  0 
  2 15  1  0  0  0  0 
  2 20  1  0  0  0  0 
  3  4  2  0  0  0  0 
  4 12  1  0  0  0  0 
  4 23  1  0  0  0  0 
  5 10  1  0  0  0  0 
  6 25  1  0  0  0  0 
  7 14  1  0  0  0  0 
  7 27  1  0  0  0  0 
  8 11  1  0  0  0  0 
  8 28  1  1  0  0  0 
  8  6  1  0  0  0  0 
  9  5  2  0  0  0  0 
  9  3  1  0  0  0  0 
 10 11  1  0  0  0  0 
 10 12  2  0  0  0  0 
 11  7  2  0  0  0  0 
 12 14  1  0  0  0  0 
 13  6  1  0  0  0  0 
 13 29  1  0  0  0  0 
 13 30  1  0  0  0  0 
 14 31  1  0  0  0  0 
 15  9  1  0  0  0  0 
 16  1  1  0  0  0  0 
 17  1  1  0  0  0  0 
 18  1  1  0  0  0  0 
 19  2  1  0  0  0  0 
 21  2  1  0  0  0  0 
 22  3  1  0  0  0  0 
 24  5  1  0  0  0  0 
 26  6  1  0  0  0  0 
M  END 
>  <HBA> 
2 
 
>  <HBD> 
2 
 
>  <TPSA> 
51.04 
 
>  <cid> 
30241 
 
>  <dipole> 
3.24 
 
>  <excitation_energy_1> 
4.256 
 
>  <excitation_energy_2> 
4.492 
 
>  <excitation_energy_3> 
4.658 
 
>  <excitation_energy_4> 
4.862 
 
>  <homo_energy> 
-5.007 
 
>  <homo_lumo_gap> 
4.933 
 
>  <logP> 
2.939 
 
>  <lumo_energy> 
-0.073 
 
>  <melting_point> 
158.79 
 
>  <molecular_refractivity> 
62.08 
 
>  <oscillator_strength_1> 
0.0632 
 
>  <oscillator_strength_2> 
0.0001 
 
>  <oscillator_strength_3> 
0.0867 
 
>  <oscillator_strength_4> 
0.0009 
 
>  <open_babel_can_smiles> 
NC[C@@H](c1c[nH]c2c1cc(OC)cc2)C 
 
>  <mulliken_charges> 
31 
1   -0.441676 
2   -0.208338 
3   -0.217823 
4   -0.173342 
5   -0.278905 
6   -0.138058 
7   -0.010623 
8   -0.151656 
9   0.377121 
10   0.078078 
11   0.076009 
12   0.317547 
13   -0.71653 
14   -0.695934 
15   -0.51665 
16   0.166144 
17   0.143375 
18   0.135704 
19   0.163879 
20   0.144704 
21   0.145389 
22   0.124221 
23   0.120162 
24   0.135662 
25   0.117104 
26   0.143718 
27   0.141735 
28   0.110148 
29   0.289642 
30   0.296368 
31   0.322823 
 
>  <lowdin_charges> 
31 
1   -0.447236 
2   -0.278081 
3   -0.214993 
4   -0.181822 
5   -0.198203 
6   -0.207892 
7   -0.138374 
8   -0.118522 
9   0.089283 
10   -0.023638 
11   -0.061536 
12   0.02089 
13   -0.560438 
14   -0.208105 
15   -0.21107 
16   0.16 
17   0.149398 
18   0.147211 
19   0.15831 
20   0.140518 
21   0.142168 
22   0.15908 
23   0.155877 
24   0.165522 
25   0.121597 
26   0.144824 
27   0.16225 
28   0.136256 
29   0.250844 
30   0.255908 
31   0.289975 
 
$$$$ 
 
