PCCDB-ID:  20558 
public computational chemistry database (PCCDB) project, http://pccdb.org 
 
 18 18  0  0  1  0  0  0  0  0999 V2000 
    1.8698   -0.6475   -1.3484 C   0  0  0  0  0  0  0  0  0  0  0  0 
    5.4114   -1.2059   -0.8262 C   0  0  0  0  0  0  0  0  0  0  0  0 
    5.6625   -1.3827    1.7113 C   0  0  0  0  0  0  0  0  0  0  0  0 
    2.6256    0.1416   -0.3012 C   0  0  0  0  0  0  0  0  0  0  0  0 
    3.3963   -0.6238    0.7513 C   0  0  2  0  0  0  0  0  0  0  0  0 
    4.7282   -1.2413    0.5258 C   0  0  0  0  0  0  0  0  0  0  0  0 
    2.5894    1.3565   -0.2299 O   0  0  0  0  0  0  0  0  0  0  0  0 
    3.5342   -2.0450    0.6141 O   0  0  0  0  0  0  0  0  0  0  0  0 
    2.4987   -1.4045   -1.8251 H   0  0  0  0  0  0  0  0  0  0  0  0 
    1.4524    0.0349   -2.0914 H   0  0  0  0  0  0  0  0  0  0  0  0 
    1.0552   -1.1964   -0.8573 H   0  0  0  0  0  0  0  0  0  0  0  0 
    6.1221   -0.3730   -0.8707 H   0  0  0  0  0  0  0  0  0  0  0  0 
    4.7026   -1.0937   -1.6489 H   0  0  0  0  0  0  0  0  0  0  0  0 
    5.9719   -2.1349   -0.9838 H   0  0  0  0  0  0  0  0  0  0  0  0 
    6.3545   -0.5345    1.7652 H   0  0  0  0  0  0  0  0  0  0  0  0 
    6.2577   -2.2987    1.6159 H   0  0  0  0  0  0  0  0  0  0  0  0 
    5.1000   -1.4368    2.6476 H   0  0  0  0  0  0  0  0  0  0  0  0 
    3.1837   -0.2692    1.7622 H   0  0  0  0  0  0  0  0  0  0  0  0 
  1 11  1  0  0  0  0 
  1  4  1  0  0  0  0 
  2  6  1  0  0  0  0 
  3 15  1  0  0  0  0 
  3 17  1  0  0  0  0 
  4  7  2  0  0  0  0 
  4  5  1  0  0  0  0 
  5 18  1  1  0  0  0 
  6  8  1  0  0  0  0 
  6  5  1  0  0  0  0 
  6  3  1  0  0  0  0 
  8  5  1  0  0  0  0 
  9  1  1  0  0  0  0 
 10  1  1  0  0  0  0 
 12  2  1  0  0  0  0 
 13  2  1  0  0  0  0 
 14  2  1  0  0  0  0 
 16  3  1  0  0  0  0 
M  END 
>  <HBA> 
2 
 
>  <HBD> 
0 
 
>  <TPSA> 
29.6 
 
>  <cid> 
20558 
 
>  <dipole> 
1.93 
 
>  <excitation_energy_1> 
4.221 
 
>  <excitation_energy_2> 
5.848 
 
>  <excitation_energy_3> 
6.367 
 
>  <excitation_energy_4> 
6.506 
 
>  <homo_energy> 
-6.697 
 
>  <homo_lumo_gap> 
5.995 
 
>  <logP> 
0.753 
 
>  <lumo_energy> 
-0.702 
 
>  <melting_point> 
19.48 
 
>  <molecular_refractivity> 
30.16 
 
>  <oscillator_strength_1> 
0.0004 
 
>  <oscillator_strength_2> 
0.0146 
 
>  <oscillator_strength_3> 
0.0319 
 
>  <oscillator_strength_4> 
0.0996 
 
>  <open_babel_can_smiles> 
CC(=O)[C@H]1OC1(C)C 
 
>  <mulliken_charges> 
18 
1   -0.526809 
2   -0.479319 
3   -0.473407 
4   0.424069 
5   -0.019044 
6   0.321319 
7   -0.439146 
8   -0.47262 
9   0.180671 
10   0.176311 
11   0.182681 
12   0.162717 
13   0.1585 
14   0.161254 
15   0.157999 
16   0.15908 
17   0.163624 
18   0.162122 
 
>  <lowdin_charges> 
18 
1   -0.476036 
2   -0.448531 
3   -0.444159 
4   0.15471 
5   -0.059741 
6   0.120509 
7   -0.230102 
8   -0.285823 
9   0.175235 
10   0.172707 
11   0.181271 
12   0.164544 
13   0.162132 
14   0.162097 
15   0.161575 
16   0.160342 
17   0.163617 
18   0.165653 
 
$$$$ 
 
