PCCDB-ID:  68895 
public computational chemistry database (PCCDB) project, http://pccdb.org 
 
 23 24  0  0  1  0  0  0  0  0999 V2000 
    2.9579    0.6088   -1.2596 C   0  0  0  0  0  0  0  0  0  0  0  0 
    2.4250    0.0398    2.4441 C   0  0  0  0  0  0  0  0  0  0  0  0 
    3.0057    0.6353    3.7375 C   0  0  0  0  0  0  0  0  0  0  0  0 
    2.3564    2.2651    1.2469 C   0  0  0  0  0  0  0  0  0  0  0  0 
    2.9125    4.1373    4.6614 C   0  0  0  0  0  0  0  0  0  0  0  0 
    2.8776    0.8106    1.1933 C   0  0  2  0  0  0  0  0  0  0  0  0 
    2.8793    2.1344    3.7417 C   0  0  0  0  0  0  0  0  0  0  0  0 
    2.5946    2.8497    2.6098 C   0  0  0  0  0  0  0  0  0  0  0  0 
    2.3733    0.1392   -0.0059 N   0  0  0  0  0  0  0  0  0  0  0  0 
    3.0604    2.8697    4.8980 N   0  0  0  0  0  0  0  0  0  0  0  0 
    2.5409    4.5498    2.9991 S   0  0  0  0  0  0  0  0  0  0  0  0 
    2.6301   -0.0449   -2.0741 H   0  0  0  0  0  0  0  0  0  0  0  0 
    4.0640    0.6359   -1.2604 H   0  0  0  0  0  0  0  0  0  0  0  0 
    2.6008    1.6181   -1.4899 H   0  0  0  0  0  0  0  0  0  0  0  0 
    1.3280    0.0540    2.4804 H   0  0  0  0  0  0  0  0  0  0  0  0 
    2.7256   -1.0130    2.3572 H   0  0  0  0  0  0  0  0  0  0  0  0 
    4.0647    0.3579    3.8427 H   0  0  0  0  0  0  0  0  0  0  0  0 
    2.4956    0.2205    4.6149 H   0  0  0  0  0  0  0  0  0  0  0  0 
    1.2839    2.2519    1.0065 H   0  0  0  0  0  0  0  0  0  0  0  0 
    2.8440    2.8734    0.4761 H   0  0  0  0  0  0  0  0  0  0  0  0 
    3.0016    4.9124    5.4141 H   0  0  0  0  0  0  0  0  0  0  0  0 
    3.9862    0.8546    1.1992 H   0  0  0  0  0  0  0  0  0  0  0  0 
    2.5606   -0.8577    0.0857 H   0  0  0  0  0  0  0  0  0  0  0  0 
  1  9  1  0  0  0  0 
  2 15  1  0  0  0  0 
  2  3  1  0  0  0  0 
  3  7  1  0  0  0  0 
  3 17  1  0  0  0  0 
  3 18  1  0  0  0  0 
  4  8  1  0  0  0  0 
  5 10  2  0  0  0  0 
  5 21  1  0  0  0  0 
  6 22  1  6  0  0  0 
  6  4  1  0  0  0  0 
  6  2  1  0  0  0  0 
  7 10  1  0  0  0  0 
  8 11  1  0  0  0  0 
  8  7  2  0  0  0  0 
  9 23  1  0  0  0  0 
  9  6  1  0  0  0  0 
 11  5  1  0  0  0  0 
 12  1  1  0  0  0  0 
 13  1  1  0  0  0  0 
 14  1  1  0  0  0  0 
 16  2  1  0  0  0  0 
 19  4  1  0  0  0  0 
 20  4  1  0  0  0  0 
M  END 
>  <HBA> 
3 
 
>  <HBD> 
1 
 
>  <TPSA> 
53.16 
 
>  <cid> 
68895 
 
>  <dipole> 
1.88 
 
>  <excitation_energy_1> 
5.031 
 
>  <excitation_energy_2> 
5.209 
 
>  <excitation_energy_3> 
5.273 
 
>  <excitation_energy_4> 
5.367 
 
>  <homo_energy> 
-6.12 
 
>  <homo_lumo_gap> 
5.641 
 
>  <logP> 
1.611 
 
>  <lumo_energy> 
-0.479 
 
>  <melting_point> 
74.49 
 
>  <molecular_refractivity> 
47.15 
 
>  <oscillator_strength_1> 
0.0189 
 
>  <oscillator_strength_2> 
0.0881 
 
>  <oscillator_strength_3> 
0.0069 
 
>  <oscillator_strength_4> 
0.0009 
 
>  <open_babel_can_smiles> 
CN[C@@H]1CCc2c(C1)scn2 
 
>  <mulliken_charges> 
23 
1   -0.308378 
2   -0.291224 
3   -0.325357 
4   -0.313147 
5   -0.126107 
6   0.052553 
7   0.28191 
8   -0.165322 
9   -0.554523 
10   -0.403342 
11   0.213662 
12   0.150772 
13   0.122721 
14   0.156666 
15   0.154715 
16   0.128838 
17   0.155724 
18   0.161178 
19   0.171438 
20   0.154883 
21   0.177532 
22   0.109621 
23   0.295189 
 
>  <lowdin_charges> 
23 
1   -0.35944 
2   -0.275369 
3   -0.271014 
4   -0.27504 
5   -0.236697 
6   -0.057653 
7   -0.006569 
8   -0.1825 
9   -0.359604 
10   -0.155105 
11   0.281047 
12   0.153899 
13   0.120208 
14   0.148071 
15   0.149717 
16   0.141848 
17   0.15362 
18   0.16344 
19   0.161322 
20   0.158241 
21   0.181529 
22   0.114473 
23   0.251576 
 
$$$$ 
 
