PCCDB-ID:  24302 
public computational chemistry database (PCCDB) project, http://pccdb.org 
 
 19 20  0  0  0  0  0  0  0  0999 V2000 
    0.9460    0.0912    0.0194 C   0  0  0  0  0  0  0  0  0  0  0  0 
    6.5891    2.3784   -0.2588 C   0  0  0  0  0  0  0  0  0  0  0  0 
    7.2738    1.1539   -0.2948 C   0  0  0  0  0  0  0  0  0  0  0  0 
    5.2022    2.3980   -0.1900 C   0  0  0  0  0  0  0  0  0  0  0  0 
    6.5783   -0.0519   -0.2622 C   0  0  0  0  0  0  0  0  0  0  0  0 
    2.4493    0.0957   -0.0553 C   0  0  0  0  0  0  0  0  0  0  0  0 
    4.4788    1.1941   -0.1559 C   0  0  0  0  0  0  0  0  0  0  0  0 
    5.1872   -0.0181   -0.1929 C   0  0  0  0  0  0  0  0  0  0  0  0 
    3.1303   -1.2348   -0.0885 C   0  0  0  0  0  0  0  0  0  0  0  0 
    3.0916    1.2173   -0.0871 N   0  0  0  0  0  0  0  0  0  0  0  0 
    2.5708   -2.3046   -0.0575 O   0  0  0  0  0  0  0  0  0  0  0  0 
    4.5067   -1.2068   -0.1608 O   0  0  0  0  0  0  0  0  0  0  0  0 
    0.5596   -0.9281    0.0369 H   0  0  0  0  0  0  0  0  0  0  0  0 
    0.5271    0.6229   -0.8419 H   0  0  0  0  0  0  0  0  0  0  0  0 
    0.6145    0.6196    0.9199 H   0  0  0  0  0  0  0  0  0  0  0  0 
    7.1451    3.3106   -0.2850 H   0  0  0  0  0  0  0  0  0  0  0  0 
    8.3585    1.1416   -0.3486 H   0  0  0  0  0  0  0  0  0  0  0  0 
    4.6424    3.3275   -0.1606 H   0  0  0  0  0  0  0  0  0  0  0  0 
    7.0861   -1.0105   -0.2890 H   0  0  0  0  0  0  0  0  0  0  0  0 
  1 13  1  0  0  0  0 
  1 15  1  0  0  0  0 
  2  4  2  0  0  0  0 
  3  5  2  0  0  0  0 
  3  2  1  0  0  0  0 
  4 18  1  0  0  0  0 
  4  7  1  0  0  0  0 
  5  8  1  0  0  0  0 
  6  1  1  0  0  0  0 
  7 10  1  0  0  0  0 
  8 12  1  0  0  0  0 
  8  7  2  0  0  0  0 
  9 11  2  0  0  0  0 
  9  6  1  0  0  0  0 
 10  6  2  0  0  0  0 
 12  9  1  0  0  0  0 
 14  1  1  0  0  0  0 
 16  2  1  0  0  0  0 
 17  3  1  0  0  0  0 
 19  5  1  0  0  0  0 
M  END 
>  <HBA> 
3 
 
>  <HBD> 
0 
 
>  <TPSA> 
43.1 
 
>  <cid> 
24302 
 
>  <dipole> 
3.11 
 
>  <excitation_energy_1> 
3.595 
 
>  <excitation_energy_2> 
3.933 
 
>  <excitation_energy_3> 
4.243 
 
>  <excitation_energy_4> 
5.042 
 
>  <homo_energy> 
-6.651 
 
>  <homo_lumo_gap> 
4.414 
 
>  <logP> 
1.496 
 
>  <lumo_energy> 
-2.237 
 
>  <melting_point> 
102.67 
 
>  <molecular_refractivity> 
45.24 
 
>  <oscillator_strength_1> 
0.0007 
 
>  <oscillator_strength_2> 
0.1196 
 
>  <oscillator_strength_3> 
0.1956 
 
>  <oscillator_strength_4> 
0.0012 
 
>  <open_babel_can_smiles> 
O=c1oc2ccccc2nc1C 
 
>  <mulliken_charges> 
19 
1   -0.512731 
2   -0.135379 
3   -0.131154 
4   -0.160979 
5   -0.181905 
6   0.239875 
7   0.248103 
8   0.345899 
9   0.573045 
10   -0.488587 
11   -0.450858 
12   -0.501378 
13   0.193564 
14   0.180602 
15   0.180658 
16   0.142038 
17   0.14588 
18   0.154326 
19   0.158981 
 
>  <lowdin_charges> 
19 
1   -0.448389 
2   -0.162647 
3   -0.134092 
4   -0.140707 
5   -0.172751 
6   0.028084 
7   0.000165 
8   0.09455 
9   0.177954 
10   -0.11252 
11   -0.22655 
12   -0.116547 
13   0.179074 
14   0.176769 
15   0.176498 
16   0.16552 
17   0.16457 
18   0.17446 
19   0.176558 
 
$$$$ 
 
