PCCDB-ID:  41199 
public computational chemistry database (PCCDB) project, http://pccdb.org 
 
 40 41  0  0  1  0  0  0  0  0999 V2000 
    0.9155   -0.1793   -0.7302 C   0  0  0  0  0  0  0  0  0  0  0  0 
    4.8526   -0.7070    3.5839 C   0  0  0  0  0  0  0  0  0  0  0  0 
    4.5034    1.3154   -0.7054 C   0  0  0  0  0  0  0  0  0  0  0  0 
    1.6148    1.4411    3.6770 C   0  0  0  0  0  0  0  0  0  0  0  0 
    5.1962    0.4192    0.3304 C   0  0  0  0  0  0  0  0  0  0  0  0 
    0.7726    0.7658    2.5860 C   0  0  0  0  0  0  0  0  0  0  0  0 
    2.9819    1.3288   -0.4974 C   0  0  0  0  0  0  0  0  0  0  0  0 
    3.1127    1.1783    3.4637 C   0  0  0  0  0  0  0  0  0  0  0  0 
    4.5846   -0.9933    0.3979 C   0  0  0  0  0  0  0  0  0  0  0  0 
    1.1056   -0.7292    2.4173 C   0  0  0  0  0  0  0  0  0  0  0  0 
    2.4322   -0.1095   -0.4863 C   0  0  1  0  0  0  0  0  0  0  0  0 
    3.3787   -0.3340    3.3524 C   0  0  1  0  0  0  0  0  0  0  0  0 
    3.0493   -1.0207    0.6353 C   0  0  2  0  0  0  0  0  0  0  0  0 
    2.6095   -1.0319    2.1733 C   0  0  2  0  0  0  0  0  0  0  0  0 
    0.6926    0.2343   -1.7219 H   0  0  0  0  0  0  0  0  0  0  0  0 
    0.3212    0.3857   -0.0097 H   0  0  0  0  0  0  0  0  0  0  0  0 
    0.5585   -1.2165   -0.7231 H   0  0  0  0  0  0  0  0  0  0  0  0 
    5.1399   -0.4152    4.6019 H   0  0  0  0  0  0  0  0  0  0  0  0 
    5.5497   -0.2141    2.9035 H   0  0  0  0  0  0  0  0  0  0  0  0 
    5.0068   -1.7898    3.5003 H   0  0  0  0  0  0  0  0  0  0  0  0 
    4.7185    0.9425   -1.7179 H   0  0  0  0  0  0  0  0  0  0  0  0 
    4.9116    2.3332   -0.6553 H   0  0  0  0  0  0  0  0  0  0  0  0 
    1.3240    1.0477    4.6624 H   0  0  0  0  0  0  0  0  0  0  0  0 
    1.4083    2.5191    3.6990 H   0  0  0  0  0  0  0  0  0  0  0  0 
    5.1261    0.9084    1.3074 H   0  0  0  0  0  0  0  0  0  0  0  0 
    6.2678    0.3400    0.1030 H   0  0  0  0  0  0  0  0  0  0  0  0 
    0.9398    1.2997    1.6449 H   0  0  0  0  0  0  0  0  0  0  0  0 
   -0.2962    0.8749    2.8148 H   0  0  0  0  0  0  0  0  0  0  0  0 
    2.5010    1.8989   -1.3042 H   0  0  0  0  0  0  0  0  0  0  0  0 
    2.7349    1.8502    0.4366 H   0  0  0  0  0  0  0  0  0  0  0  0 
    3.6859    1.5904    4.3057 H   0  0  0  0  0  0  0  0  0  0  0  0 
    3.4636    1.7043    2.5662 H   0  0  0  0  0  0  0  0  0  0  0  0 
    5.1049   -1.5973    1.1473 H   0  0  0  0  0  0  0  0  0  0  0  0 
    4.7764   -1.4859   -0.5664 H   0  0  0  0  0  0  0  0  0  0  0  0 
    0.4883   -1.1699    1.6287 H   0  0  0  0  0  0  0  0  0  0  0  0 
    0.8138   -1.2421    3.3457 H   0  0  0  0  0  0  0  0  0  0  0  0 
    2.8591   -0.5715   -1.3925 H   0  0  0  0  0  0  0  0  0  0  0  0 
    2.8637   -0.7667    4.2266 H   0  0  0  0  0  0  0  0  0  0  0  0 
    2.7263   -2.0248    0.3236 H   0  0  0  0  0  0  0  0  0  0  0  0 
    2.7336   -2.0985    2.4128 H   0  0  0  0  0  0  0  0  0  0  0  0 
  1 17  1  0  0  0  0 
  1 11  1  0  0  0  0 
  1 16  1  0  0  0  0 
  2 18  1  0  0  0  0 
  3 22  1  0  0  0  0 
  3  7  1  0  0  0  0 
  3  5  1  0  0  0  0 
  4 24  1  0  0  0  0 
  4 23  1  0  0  0  0 
  5  9  1  0  0  0  0 
  5 25  1  0  0  0  0 
  6 28  1  0  0  0  0 
  6  4  1  0  0  0  0 
  7 11  1  0  0  0  0 
  7 30  1  0  0  0  0 
  8  4  1  0  0  0  0 
  8 31  1  0  0  0  0 
  9 13  1  0  0  0  0 
  9 33  1  0  0  0  0 
 10  6  1  0  0  0  0 
 10 36  1  0  0  0  0 
 11 37  1  6  0  0  0 
 11 13  1  0  0  0  0 
 12  8  1  0  0  0  0 
 12  2  1  0  0  0  0 
 12 38  1  1  0  0  0 
 13 39  1  6  0  0  0 
 13 14  1  0  0  0  0 
 14 40  1  1  0  0  0 
 14 10  1  0  0  0  0 
 14 12  1  0  0  0  0 
 15  1  1  0  0  0  0 
 19  2  1  0  0  0  0 
 20  2  1  0  0  0  0 
 21  3  1  0  0  0  0 
 26  5  1  0  0  0  0 
 27  6  1  0  0  0  0 
 29  7  1  0  0  0  0 
 32  8  1  0  0  0  0 
 34  9  1  0  0  0  0 
 35 10  1  0  0  0  0 
M  END 
>  <HBA> 
0 
 
>  <HBD> 
0 
 
>  <TPSA> 
0.0 
 
>  <cid> 
41199 
 
>  <dipole> 
0.14 
 
>  <excitation_energy_1> 
6.734 
 
>  <excitation_energy_2> 
6.91 
 
>  <excitation_energy_3> 
7.071 
 
>  <excitation_energy_4> 
7.108 
 
>  <homo_energy> 
-7.385 
 
>  <homo_lumo_gap> 
9.208 
 
>  <logP> 
4.639 
 
>  <lumo_energy> 
1.823 
 
>  <melting_point> 
13.28 
 
>  <molecular_refractivity> 
65.18 
 
>  <oscillator_strength_1> 
0.0041 
 
>  <oscillator_strength_2> 
0.0014 
 
>  <oscillator_strength_3> 
0.0017 
 
>  <oscillator_strength_4> 
0.0044 
 
>  <open_babel_can_smiles> 
C[C@H]1CCCC[C@H]1[C@@H]1CCCC[C@@H]1C 
 
>  <mulliken_charges> 
40 
1   -0.468225 
2   -0.467745 
3   -0.264766 
4   -0.265133 
5   -0.264539 
6   -0.264204 
7   -0.267316 
8   -0.266998 
9   -0.277716 
10   -0.27789 
11   -0.07266 
12   -0.07298 
13   -0.09205 
14   -0.091938 
15   0.136066 
16   0.155581 
17   0.13811 
18   0.136181 
19   0.15531 
20   0.138059 
21   0.12576 
22   0.126208 
23   0.125852 
24   0.126181 
25   0.141845 
26   0.12715 
27   0.14189 
28   0.1271 
29   0.124481 
30   0.140314 
31   0.124413 
32   0.140282 
33   0.13431 
34   0.123961 
35   0.134518 
36   0.123839 
37   0.11725 
38   0.117311 
39   0.116135 
40   0.116053 
 
>  <lowdin_charges> 
40 
1   -0.453225 
2   -0.451736 
3   -0.276027 
4   -0.275332 
5   -0.282081 
6   -0.282693 
7   -0.285975 
8   -0.286173 
9   -0.284656 
10   -0.284806 
11   -0.127728 
12   -0.128064 
13   -0.136889 
14   -0.135848 
15   0.145919 
16   0.15355 
17   0.144585 
18   0.145709 
19   0.153281 
20   0.143823 
21   0.134903 
22   0.140423 
23   0.135315 
24   0.139451 
25   0.141788 
26   0.140474 
27   0.142231 
28   0.140536 
29   0.142004 
30   0.139199 
31   0.141762 
32   0.139555 
33   0.147552 
34   0.137734 
35   0.147586 
36   0.138045 
37   0.138323 
38   0.138591 
39   0.140031 
40   0.138861 
 
$$$$ 
 
