PCCDB-ID:  31995 
public computational chemistry database (PCCDB) project, http://pccdb.org 
 
 29 30  0  0  0  0  0  0  0  0999 V2000 
    0.8941   -0.1250    1.3772 C   0  0  0  0  0  0  0  0  0  0  0  0 
    2.8501    0.8075    0.0581 C   0  0  0  0  0  0  0  0  0  0  0  0 
    3.2061   -1.1759    1.3549 C   0  0  0  0  0  0  0  0  0  0  0  0 
    4.1771    0.7819   -0.3573 C   0  0  0  0  0  0  0  0  0  0  0  0 
    4.5349   -1.2225    0.9332 C   0  0  0  0  0  0  0  0  0  0  0  0 
    5.2962   -2.5349   -2.1135 C   0  0  0  0  0  0  0  0  0  0  0  0 
    7.1382   -3.6987   -1.1181 C   0  0  0  0  0  0  0  0  0  0  0  0 
    4.8586   -3.7652   -2.6006 C   0  0  0  0  0  0  0  0  0  0  0  0 
    6.6062   -4.8765   -1.6447 C   0  0  0  0  0  0  0  0  0  0  0  0 
    2.3347   -0.1702    0.9232 C   0  0  0  0  0  0  0  0  0  0  0  0 
    6.4683   -2.4905   -1.3489 C   0  0  0  0  0  0  0  0  0  0  0  0 
    5.0396   -0.2500    0.0551 C   0  0  0  0  0  0  0  0  0  0  0  0 
    7.0249   -1.1901   -0.8474 C   0  0  0  0  0  0  0  0  0  0  0  0 
    8.4035   -1.1003   -0.9508 N   0  0  0  0  0  0  0  0  0  0  0  0 
    5.4887   -4.9270   -2.3786 N   0  0  0  0  0  0  0  0  0  0  0  0 
    6.3849   -0.1970   -0.3424 N   0  0  0  0  0  0  0  0  0  0  0  0 
    0.6602    0.8184    1.8869 H   0  0  0  0  0  0  0  0  0  0  0  0 
    0.6693   -0.9411    2.0715 H   0  0  0  0  0  0  0  0  0  0  0  0 
    0.2008   -0.2105    0.5304 H   0  0  0  0  0  0  0  0  0  0  0  0 
    2.2022    1.6114   -0.2864 H   0  0  0  0  0  0  0  0  0  0  0  0 
    2.8421   -1.9399    2.0388 H   0  0  0  0  0  0  0  0  0  0  0  0 
    4.5687    1.5566   -1.0105 H   0  0  0  0  0  0  0  0  0  0  0  0 
    5.1936   -2.0053    1.2982 H   0  0  0  0  0  0  0  0  0  0  0  0 
    4.7377   -1.6304   -2.3266 H   0  0  0  0  0  0  0  0  0  0  0  0 
    8.0478   -3.7209   -0.5261 H   0  0  0  0  0  0  0  0  0  0  0  0 
    3.9537   -3.8206   -3.2032 H   0  0  0  0  0  0  0  0  0  0  0  0 
    7.1065   -5.8275   -1.4686 H   0  0  0  0  0  0  0  0  0  0  0  0 
    8.8345   -1.5522   -1.7475 H   0  0  0  0  0  0  0  0  0  0  0  0 
    8.7628   -0.1746   -0.7455 H   0  0  0  0  0  0  0  0  0  0  0  0 
  1 17  1  0  0  0  0 
  1 18  1  0  0  0  0 
  2 10  2  0  0  0  0 
  3 21  1  0  0  0  0 
  4 12  2  0  0  0  0 
  4  2  1  0  0  0  0 
  5 23  1  0  0  0  0 
  5  3  2  0  0  0  0 
  6 11  2  0  0  0  0 
  7 25  1  0  0  0  0 
  8 15  2  0  0  0  0 
  8  6  1  0  0  0  0 
  9 27  1  0  0  0  0 
  9  7  2  0  0  0  0 
 10  3  1  0  0  0  0 
 10  1  1  0  0  0  0 
 11  7  1  0  0  0  0 
 11 13  1  0  0  0  0 
 12  5  1  0  0  0  0 
 13 16  2  0  0  0  0 
 14 13  1  0  0  0  0 
 14 29  1  0  0  0  0 
 15  9  1  0  0  0  0 
 16 12  1  0  0  0  0 
 19  1  1  0  0  0  0 
 20  2  1  0  0  0  0 
 22  4  1  0  0  0  0 
 24  6  1  0  0  0  0 
 26  8  1  0  0  0  0 
 28 14  1  0  0  0  0 
M  END 
>  <HBA> 
3 
 
>  <HBD> 
1 
 
>  <TPSA> 
51.27 
 
>  <cid> 
31995 
 
>  <dipole> 
1.94 
 
>  <excitation_energy_1> 
3.271 
 
>  <excitation_energy_2> 
4.222 
 
>  <excitation_energy_3> 
4.356 
 
>  <excitation_energy_4> 
4.432 
 
>  <homo_energy> 
-5.475 
 
>  <homo_lumo_gap> 
4.09 
 
>  <logP> 
3.127 
 
>  <lumo_energy> 
-1.385 
 
>  <melting_point> 
133.54 
 
>  <molecular_refractivity> 
65.61 
 
>  <oscillator_strength_1> 
0.0517 
 
>  <oscillator_strength_2> 
0.0136 
 
>  <oscillator_strength_3> 
0.0092 
 
>  <oscillator_strength_4> 
0.0272 
 
>  <open_babel_can_smiles> 
Cc1ccc(cc1)/N=C(/c1ccncc1)\N 
 
>  <mulliken_charges> 
29 
1   -0.530486 
2   -0.187117 
3   -0.19555 
4   -0.15793 
5   -0.144654 
6   -0.157997 
7   -0.1807 
8   0.033543 
9   0.038709 
10   0.179975 
11   0.094357 
12   0.244031 
13   0.391838 
14   -0.737544 
15   -0.402317 
16   -0.524418 
17   0.159089 
18   0.152792 
19   0.157926 
20   0.118746 
21   0.120064 
22   0.124975 
23   0.125461 
24   0.162678 
25   0.154313 
26   0.14802 
27   0.145652 
28   0.328798 
29   0.337748 
 
>  <lowdin_charges> 
29 
1   -0.443149 
2   -0.164509 
3   -0.165396 
4   -0.177607 
5   -0.183914 
6   -0.161407 
7   -0.178978 
8   -0.086226 
9   -0.089762 
10   -0.013207 
11   -0.008059 
12   0.039508 
13   0.107229 
14   -0.465869 
15   -0.142535 
16   -0.20418 
17   0.158338 
18   0.156087 
19   0.158151 
20   0.153927 
21   0.154218 
22   0.159904 
23   0.158918 
24   0.17859 
25   0.171809 
26   0.160113 
27   0.159263 
28   0.282478 
29   0.286266 
 
$$$$ 
 
