PCCDB-ID:  9496 
public computational chemistry database (PCCDB) project, http://pccdb.org 
 
 33 32  0  0  0  0  0  0  0  0999 V2000 
    6.2001   -0.0832   -0.4858 C   0  0  0  0  0  0  0  0  0  0  0  0 
    3.9113   -7.9335    2.3806 C   0  0  0  0  0  0  0  0  0  0  0  0 
    5.1348   -0.2761    0.6009 C   0  0  0  0  0  0  0  0  0  0  0  0 
    3.9952   -6.5519    3.0380 C   0  0  0  0  0  0  0  0  0  0  0  0 
    5.5878   -1.1423    1.7878 C   0  0  0  0  0  0  0  0  0  0  0  0 
    5.1221   -5.6823    2.4663 C   0  0  0  0  0  0  0  0  0  0  0  0 
    5.8786   -2.6031    1.4163 C   0  0  0  0  0  0  0  0  0  0  0  0 
    5.1951   -4.2944    3.1236 C   0  0  0  0  0  0  0  0  0  0  0  0 
    7.5760   -3.5700    2.8822 C   0  0  0  0  0  0  0  0  0  0  0  0 
    8.4731   -3.0061    2.1468 N   0  0  0  0  0  0  0  0  0  0  0  0 
    7.8419   -4.4007    3.9917 N   0  0  0  0  0  0  0  0  0  0  0  0 
    6.2329   -3.4199    2.5830 N   0  0  0  0  0  0  0  0  0  0  0  0 
    5.8503    0.6102   -1.2597 H   0  0  0  0  0  0  0  0  0  0  0  0 
    6.4573   -1.0260   -0.9809 H   0  0  0  0  0  0  0  0  0  0  0  0 
    7.1248    0.3262   -0.0615 H   0  0  0  0  0  0  0  0  0  0  0  0 
    3.1028   -8.5342    2.8128 H   0  0  0  0  0  0  0  0  0  0  0  0 
    4.8472   -8.4905    2.5102 H   0  0  0  0  0  0  0  0  0  0  0  0 
    3.7247   -7.8482    1.3032 H   0  0  0  0  0  0  0  0  0  0  0  0 
    4.2298   -0.7141    0.1539 H   0  0  0  0  0  0  0  0  0  0  0  0 
    4.8336    0.7083    0.9839 H   0  0  0  0  0  0  0  0  0  0  0  0 
    4.1416   -6.6726    4.1212 H   0  0  0  0  0  0  0  0  0  0  0  0 
    3.0337   -6.0319    2.9176 H   0  0  0  0  0  0  0  0  0  0  0  0 
    4.8118   -1.1228    2.5664 H   0  0  0  0  0  0  0  0  0  0  0  0 
    6.4953   -0.7163    2.2341 H   0  0  0  0  0  0  0  0  0  0  0  0 
    4.9789   -5.5567    1.3840 H   0  0  0  0  0  0  0  0  0  0  0  0 
    6.0886   -6.1833    2.6007 H   0  0  0  0  0  0  0  0  0  0  0  0 
    6.7022   -2.6585    0.7028 H   0  0  0  0  0  0  0  0  0  0  0  0 
    4.9948   -3.0530    0.9460 H   0  0  0  0  0  0  0  0  0  0  0  0 
    5.3125   -4.4109    4.2083 H   0  0  0  0  0  0  0  0  0  0  0  0 
    4.2404   -3.7711    2.9943 H   0  0  0  0  0  0  0  0  0  0  0  0 
    9.4051   -3.1623    2.5319 H   0  0  0  0  0  0  0  0  0  0  0  0 
    8.8045   -4.3202    4.2969 H   0  0  0  0  0  0  0  0  0  0  0  0 
    7.2146   -4.2761    4.7788 H   0  0  0  0  0  0  0  0  0  0  0  0 
  1 15  1  0  0  0  0 
  1  3  1  0  0  0  0 
  2 17  1  0  0  0  0 
  2 16  1  0  0  0  0 
  2  4  1  0  0  0  0 
  3 20  1  0  0  0  0 
  3  5  1  0  0  0  0 
  4 21  1  0  0  0  0 
  5 24  1  0  0  0  0 
  5 23  1  0  0  0  0 
  6 26  1  0  0  0  0 
  6  4  1  0  0  0  0 
  6  8  1  0  0  0  0 
  7  5  1  0  0  0  0 
  7 12  1  0  0  0  0 
  8 29  1  0  0  0  0 
  9 11  2  0  0  0  0 
 10 31  1  0  0  0  0 
 10  9  1  0  0  0  0 
 11 32  1  0  0  0  0 
 11 33  1  0  0  0  0 
 12  9  1  0  0  0  0 
 12  8  1  0  0  0  0 
 13  1  1  0  0  0  0 
 14  1  1  0  0  0  0 
 18  2  1  0  0  0  0 
 19  3  1  0  0  0  0 
 22  4  1  0  0  0  0 
 25  6  1  0  0  0  0 
 27  7  1  0  0  0  0 
 28  7  1  0  0  0  0 
 30  8  1  0  0  0  0 
M  RAD  1  10   2 
M  END 
>  <HBA> 
3 
 
>  <HBD> 
2 
 
>  <TPSA> 
53.11 
 
>  <cid> 
9496 
 
>  <dipole> 
2.89 
 
>  <excitation_energy_1> 
4.718 
 
>  <excitation_energy_2> 
5.27 
 
>  <excitation_energy_3> 
5.467 
 
>  <excitation_energy_4> 
5.556 
 
>  <homo_energy> 
-5.41 
 
>  <homo_lumo_gap> 
7.04 
 
>  <logP> 
2.582 
 
>  <lumo_energy> 
1.63 
 
>  <melting_point> 
59.63 
 
>  <molecular_refractivity> 
54.57 
 
>  <oscillator_strength_1> 
0.0022 
 
>  <oscillator_strength_2> 
0.0024 
 
>  <oscillator_strength_3> 
0.0035 
 
>  <oscillator_strength_4> 
0.0224 
 
>  <open_babel_can_smiles> 
CCCCN(C(=[NH2])[NH])CCCC 
 
>  <mulliken_charges> 
33 
1   -0.441396 
2   -0.440671 
3   -0.254708 
4   -0.252068 
5   -0.246963 
6   -0.249525 
7   -0.139458 
8   -0.148902 
9   0.589646 
10   -0.667898 
11   -0.755466 
12   -0.424362 
13   0.136678 
14   0.149564 
15   0.150072 
16   0.141886 
17   0.145388 
18   0.143879 
19   0.123778 
20   0.130289 
21   0.129097 
22   0.129504 
23   0.11892 
24   0.151338 
25   0.136971 
26   0.15773 
27   0.192926 
28   0.125103 
29   0.125245 
30   0.147053 
31   0.259599 
32   0.316638 
33   0.320111 
 
>  <lowdin_charges> 
33 
1   -0.447715 
2   -0.442227 
3   -0.27399 
4   -0.270428 
5   -0.284465 
6   -0.287262 
7   -0.199613 
8   -0.194246 
9   0.129942 
10   -0.500774 
11   -0.514118 
12   -0.123308 
13   0.14791 
14   0.149387 
15   0.151277 
16   0.150343 
17   0.14852 
18   0.145915 
19   0.135487 
20   0.141622 
21   0.135761 
22   0.137645 
23   0.135926 
24   0.151714 
25   0.141108 
26   0.15327 
27   0.172826 
28   0.13757 
29   0.133762 
30   0.148241 
31   0.243143 
32   0.272663 
33   0.274114 
 
$$$$ 
 
