PCCDB-ID:  7363 
public computational chemistry database (PCCDB) project, http://pccdb.org 
 
 13 13  0  0  0  0  0  0  0  0999 V2000 
   -1.2580    0.1369    0.0774 C   0  0  0  0  0  0  0  0  0  0  0  0 
   -0.5538   -1.1102    0.1364 C   0  0  0  0  0  0  0  0  0  0  0  0 
   -0.3058    1.0970   -0.0746 C   0  0  0  0  0  0  0  0  0  0  0  0 
    1.9953   -1.6555   -0.0125 C   0  0  0  0  0  0  0  0  0  0  0  0 
    0.7750   -0.8145    0.0176 C   0  0  0  0  0  0  0  0  0  0  0  0 
    0.9366    0.5376   -0.1121 O   0  0  0  0  0  0  0  0  0  0  0  0 
    2.7887   -1.8412   -1.6875 S   0  0  0  0  0  0  0  0  0  0  0  0 
   -2.3257    0.2925    0.1444 H   0  0  0  0  0  0  0  0  0  0  0  0 
   -0.9794   -2.0976    0.2540 H   0  0  0  0  0  0  0  0  0  0  0  0 
   -0.3366    2.1725   -0.1606 H   0  0  0  0  0  0  0  0  0  0  0  0 
    1.7686   -2.6465    0.3868 H   0  0  0  0  0  0  0  0  0  0  0  0 
    2.7880   -1.2183    0.6023 H   0  0  0  0  0  0  0  0  0  0  0  0 
    1.7070   -2.3676   -2.3014 H   0  0  0  0  0  0  0  0  0  0  0  0 
  1  2  1  0  0  0  0 
  1  8  1  0  0  0  0 
  2  9  1  0  0  0  0 
  3  1  2  0  0  0  0 
  4  5  1  0  0  0  0 
  4 11  1  0  0  0  0 
  4 12  1  0  0  0  0 
  5  2  2  0  0  0  0 
  6  3  1  0  0  0  0 
  6  5  1  0  0  0  0 
  7  4  1  0  0  0  0 
 10  3  1  0  0  0  0 
 13  7  1  0  0  0  0 
M  END 
>  <HBA> 
2 
 
>  <HBD> 
1 
 
>  <TPSA> 
51.94 
 
>  <cid> 
7363 
 
>  <dipole> 
2.2 
 
>  <excitation_energy_1> 
4.976 
 
>  <excitation_energy_2> 
5.276 
 
>  <excitation_energy_3> 
5.442 
 
>  <excitation_energy_4> 
5.621 
 
>  <homo_energy> 
-6.033 
 
>  <homo_lumo_gap> 
5.908 
 
>  <logP> 
1.709 
 
>  <lumo_energy> 
-0.125 
 
>  <melting_point> 
26.64 
 
>  <molecular_refractivity> 
31.6 
 
>  <oscillator_strength_1> 
0.0294 
 
>  <oscillator_strength_2> 
0.0235 
 
>  <oscillator_strength_3> 
0.2327 
 
>  <oscillator_strength_4> 
0.0684 
 
>  <open_babel_can_smiles> 
SCc1ccco1 
 
>  <mulliken_charges> 
13 
1   -0.178663 
2   -0.204033 
3   0.085256 
4   -0.512475 
5   0.368732 
6   -0.424081 
7   -0.065033 
8   0.142766 
9   0.13918 
10   0.156831 
11   0.193304 
12   0.201542 
13   0.096672 
 
>  <lowdin_charges> 
13 
1   -0.202792 
2   -0.213796 
3   -0.073661 
4   -0.367744 
5   0.054577 
6   -0.09617 
7   -0.082339 
8   0.168376 
9   0.16749 
10   0.17018 
11   0.174516 
12   0.184751 
13   0.116612 
 
$$$$ 
 
