PCCDB-ID:  66682 
public computational chemistry database (PCCDB) project, http://pccdb.org 
 
 29 29  0  0  1  0  0  0  0  0999 V2000 
    2.0174   -1.6619   -0.5126 C   0  0  0  0  0  0  0  0  0  0  0  0 
    5.9211    0.6634    1.4278 C   0  0  0  0  0  0  0  0  0  0  0  0 
    2.9182   -1.5956   -1.4926 C   0  0  0  0  0  0  0  0  0  0  0  0 
    6.3937    0.1629    0.2854 C   0  0  0  0  0  0  0  0  0  0  0  0 
    3.9269   -0.4813   -1.6365 C   0  0  0  0  0  0  0  0  0  0  0  0 
    5.9425   -1.1414   -0.3173 C   0  0  0  0  0  0  0  0  0  0  0  0 
    8.1419   -1.3943   -3.7815 C   0  0  0  0  0  0  0  0  0  0  0  0 
    6.0955   -1.1636   -5.1937 C   0  0  0  0  0  0  0  0  0  0  0  0 
    6.0812   -1.0766   -2.7602 C   0  0  1  0  0  0  0  0  0  0  0  0 
    9.4027   -1.6002   -3.6849 N   0  0  0  0  0  0  0  0  0  0  0  0 
    5.3999   -1.1612   -6.2680 N   0  0  0  0  0  0  0  0  0  0  0  0 
    7.4614   -1.2880   -5.0314 N   0  0  0  0  0  0  0  0  0  0  0  0 
    7.3685   -1.2374   -2.6506 N   0  0  0  0  0  0  0  0  0  0  0  0 
    5.4260   -1.0210   -3.9778 N   0  0  0  0  0  0  0  0  0  0  0  0 
    5.3121   -0.9605   -1.6365 N   0  0  0  0  0  0  0  0  0  0  0  0 
    1.3029   -2.4774   -0.4447 H   0  0  0  0  0  0  0  0  0  0  0  0 
    1.9553   -0.8948    0.2570 H   0  0  0  0  0  0  0  0  0  0  0  0 
    6.2834    1.6032    1.8360 H   0  0  0  0  0  0  0  0  0  0  0  0 
    5.1663    0.1401    2.0126 H   0  0  0  0  0  0  0  0  0  0  0  0 
    2.9616   -2.3839   -2.2449 H   0  0  0  0  0  0  0  0  0  0  0  0 
    7.1569    0.6956   -0.2799 H   0  0  0  0  0  0  0  0  0  0  0  0 
    3.8233    0.2279   -0.8070 H   0  0  0  0  0  0  0  0  0  0  0  0 
    3.7474    0.1007   -2.5480 H   0  0  0  0  0  0  0  0  0  0  0  0 
    5.2100   -1.6354    0.3310 H   0  0  0  0  0  0  0  0  0  0  0  0 
    6.7948   -1.8089   -0.4586 H   0  0  0  0  0  0  0  0  0  0  0  0 
    9.8330   -1.6839   -4.6096 H   0  0  0  0  0  0  0  0  0  0  0  0 
    5.9847   -1.2846   -7.0949 H   0  0  0  0  0  0  0  0  0  0  0  0 
    8.0085   -1.4064   -5.8729 H   0  0  0  0  0  0  0  0  0  0  0  0 
    4.4207   -1.0501   -4.0624 H   0  0  0  0  0  0  0  0  0  0  0  0 
  1 16  1  0  0  0  0 
  1 17  1  0  0  0  0 
  2 18  1  0  0  0  0 
  2 19  1  0  0  0  0 
  3  1  2  0  0  0  0 
  4  2  2  0  0  0  0 
  5  3  1  0  0  0  0 
  5 22  1  0  0  0  0 
  6  4  1  0  0  0  0 
  6 24  1  0  0  0  0 
  7 10  1  0  0  0  0 
  7 13  2  0  0  0  0 
  8 12  1  0  0  0  0 
  8 14  1  0  0  0  0 
  9 13  1  0  0  0  0 
  9 15  1  1  0  0  0 
 11  8  2  0  0  0  0 
 12  7  1  0  0  0  0 
 14  9  1  0  0  0  0 
 15  5  1  0  0  0  0 
 15  6  1  0  0  0  0 
 20  3  1  0  0  0  0 
 21  4  1  0  0  0  0 
 23  5  1  0  0  0  0 
 25  6  1  0  0  0  0 
 26 10  1  0  0  0  0 
 27 11  1  0  0  0  0 
 28 12  1  0  0  0  0 
 29 14  1  0  0  0  0 
M  RAD  2   9   2  10   2 
M  END 
>  <HBA> 
6 
 
>  <HBD> 
2 
 
>  <TPSA> 
93.95 
 
>  <cid> 
66682 
 
>  <dipole> 
3.5 
 
>  <excitation_energy_1> 
4.883 
 
>  <excitation_energy_2> 
5.053 
 
>  <excitation_energy_3> 
5.134 
 
>  <excitation_energy_4> 
5.447 
 
>  <homo_energy> 
-5.886 
 
>  <homo_lumo_gap> 
5.706 
 
>  <logP> 
1.377 
 
>  <lumo_energy> 
-0.18 
 
>  <melting_point> 
115.64 
 
>  <molecular_refractivity> 
61.12 
 
>  <oscillator_strength_1> 
0.0399 
 
>  <oscillator_strength_2> 
0.0065 
 
>  <oscillator_strength_3> 
0.1509 
 
>  <oscillator_strength_4> 
0.0212 
 
>  <open_babel_can_smiles> 
C=CCN([C]1NC(=N)NC(=N1)[NH])CC=C 
 
>  <mulliken_charges> 
29 
1   -0.335249 
2   -0.341728 
3   -0.036589 
4   -0.044417 
5   -0.236324 
6   -0.200013 
7   0.609633 
8   0.691038 
9   0.780774 
10   -0.626106 
11   -0.663076 
12   -0.694608 
13   -0.547928 
14   -0.69888 
15   -0.466287 
16   0.154676 
17   0.147014 
18   0.148607 
19   0.137125 
20   0.140286 
21   0.159893 
22   0.176571 
23   0.16826 
24   0.153452 
25   0.209685 
26   0.257647 
27   0.278133 
28   0.325533 
29   0.352876 
 
>  <lowdin_charges> 
29 
1   -0.324064 
2   -0.338437 
3   -0.163619 
4   -0.151926 
5   -0.199749 
6   -0.194616 
7   0.12501 
8   0.139725 
9   0.151811 
10   -0.426688 
11   -0.470362 
12   -0.284184 
13   -0.249899 
14   -0.245144 
15   -0.094643 
16   0.16693 
17   0.160048 
18   0.162844 
19   0.154731 
20   0.15585 
21   0.168499 
22   0.167025 
23   0.160152 
24   0.155236 
25   0.188566 
26   0.239465 
27   0.256519 
28   0.289104 
29   0.301816 
 
$$$$ 
 
