PCCDB-ID:  25663 
public computational chemistry database (PCCDB) project, http://pccdb.org 
 
 29 29  0  0  0  0  0  0  0  0999 V2000 
    2.0971   -0.2753   -1.8729 C   0  0  0  0  0  0  0  0  0  0  0  0 
    5.5679   -2.1950    2.2324 C   0  0  0  0  0  0  0  0  0  0  0  0 
    2.6297   -1.4935   -1.9796 C   0  0  0  0  0  0  0  0  0  0  0  0 
    5.9224   -2.0322    0.9568 C   0  0  0  0  0  0  0  0  0  0  0  0 
    5.0830   -5.2582   -4.6963 C   0  0  0  0  0  0  0  0  0  0  0  0 
    5.6112   -3.9718   -4.8053 C   0  0  0  0  0  0  0  0  0  0  0  0 
    4.4851   -5.6547   -3.4981 C   0  0  0  0  0  0  0  0  0  0  0  0 
    3.4358   -2.1742   -0.9071 C   0  0  0  0  0  0  0  0  0  0  0  0 
    5.7242   -3.0418   -0.1411 C   0  0  0  0  0  0  0  0  0  0  0  0 
    5.5406   -3.0916   -3.7236 C   0  0  0  0  0  0  0  0  0  0  0  0 
    4.4171   -4.7712   -2.4209 C   0  0  0  0  0  0  0  0  0  0  0  0 
    4.8886   -2.5082   -1.3386 C   0  0  0  0  0  0  0  0  0  0  0  0 
    4.9444   -3.4738   -2.5147 C   0  0  0  0  0  0  0  0  0  0  0  0 
    1.5244    0.1725   -2.6810 H   0  0  0  0  0  0  0  0  0  0  0  0 
    2.2090    0.3216   -0.9694 H   0  0  0  0  0  0  0  0  0  0  0  0 
    5.7525   -1.4292    2.9812 H   0  0  0  0  0  0  0  0  0  0  0  0 
    5.0847   -3.1065    2.5795 H   0  0  0  0  0  0  0  0  0  0  0  0 
    2.4927   -2.0533   -2.9051 H   0  0  0  0  0  0  0  0  0  0  0  0 
    6.4048   -1.0990    0.6579 H   0  0  0  0  0  0  0  0  0  0  0  0 
    5.1352   -5.9458   -5.5362 H   0  0  0  0  0  0  0  0  0  0  0  0 
    6.0775   -3.6497   -5.7330 H   0  0  0  0  0  0  0  0  0  0  0  0 
    4.0699   -6.6547   -3.4015 H   0  0  0  0  0  0  0  0  0  0  0  0 
    2.9376   -3.1096   -0.6093 H   0  0  0  0  0  0  0  0  0  0  0  0 
    3.4702   -1.5423   -0.0121 H   0  0  0  0  0  0  0  0  0  0  0  0 
    5.2558   -3.9470    0.2669 H   0  0  0  0  0  0  0  0  0  0  0  0 
    6.7063   -3.3468   -0.5303 H   0  0  0  0  0  0  0  0  0  0  0  0 
    5.9533   -2.0896   -3.8185 H   0  0  0  0  0  0  0  0  0  0  0  0 
    3.9483   -5.0985   -1.4958 H   0  0  0  0  0  0  0  0  0  0  0  0 
    5.3515   -1.5666   -1.6652 H   0  0  0  0  0  0  0  0  0  0  0  0 
  1 15  1  0  0  0  0 
  2 17  1  0  0  0  0 
  2 16  1  0  0  0  0 
  3  1  2  0  0  0  0 
  3  8  1  0  0  0  0 
  4  2  2  0  0  0  0 
  5  7  1  0  0  0  0 
  6  5  2  0  0  0  0 
  6 10  1  0  0  0  0 
  7 22  1  0  0  0  0 
  7 11  2  0  0  0  0 
  8 23  1  0  0  0  0 
  8 24  1  0  0  0  0 
  9 25  1  0  0  0  0 
  9  4  1  0  0  0  0 
 10 13  2  0  0  0  0 
 11 28  1  0  0  0  0 
 12  8  1  0  0  0  0 
 12  9  1  0  0  0  0 
 13 11  1  0  0  0  0 
 13 12  1  0  0  0  0 
 14  1  1  0  0  0  0 
 18  3  1  0  0  0  0 
 19  4  1  0  0  0  0 
 20  5  1  0  0  0  0 
 21  6  1  0  0  0  0 
 26  9  1  0  0  0  0 
 27 10  1  0  0  0  0 
 29 12  1  0  0  0  0 
M  END 
>  <HBA> 
0 
 
>  <HBD> 
0 
 
>  <TPSA> 
0.0 
 
>  <cid> 
25663 
 
>  <dipole> 
0.4 
 
>  <excitation_energy_1> 
5.284 
 
>  <excitation_energy_2> 
5.784 
 
>  <excitation_energy_3> 
5.966 
 
>  <excitation_energy_4> 
6.009 
 
>  <homo_energy> 
-6.422 
 
>  <homo_lumo_gap> 
6.419 
 
>  <logP> 
3.922 
 
>  <lumo_energy> 
-0.003 
 
>  <melting_point> 
-38.03 
 
>  <molecular_refractivity> 
59.3 
 
>  <oscillator_strength_1> 
0.0012 
 
>  <oscillator_strength_2> 
0.082 
 
>  <oscillator_strength_3> 
0.0182 
 
>  <oscillator_strength_4> 
0.0067 
 
>  <open_babel_can_smiles> 
C=CCC(c1ccccc1)CC=C 
 
>  <mulliken_charges> 
29 
1   -0.346227 
2   -0.341579 
3   -0.041671 
4   -0.041172 
5   -0.131138 
6   -0.126171 
7   -0.129827 
8   -0.310574 
9   -0.304032 
10   -0.193094 
11   -0.185607 
12   -0.176192 
13   0.17361 
14   0.136536 
15   0.13318 
16   0.139577 
17   0.135839 
18   0.136295 
19   0.125645 
20   0.128072 
21   0.128641 
22   0.128487 
23   0.139071 
24   0.149473 
25   0.137416 
26   0.152286 
27   0.125888 
28   0.125982 
29   0.131289 
 
>  <lowdin_charges> 
29 
1   -0.346319 
2   -0.343934 
3   -0.146067 
4   -0.145328 
5   -0.162376 
6   -0.155222 
7   -0.153242 
8   -0.274234 
9   -0.271199 
10   -0.167963 
11   -0.168718 
12   -0.121402 
13   -0.002411 
14   0.157782 
15   0.152591 
16   0.159368 
17   0.154399 
18   0.155007 
19   0.14932 
20   0.157742 
21   0.157381 
22   0.156042 
23   0.147618 
24   0.154992 
25   0.146963 
26   0.156533 
27   0.154348 
28   0.154197 
29   0.144133 
 
$$$$ 
 
