PCCDB-ID:  21626 
public computational chemistry database (PCCDB) project, http://pccdb.org 
 
 22 22  0  0  0  0  0  0  0  0999 V2000 
   -0.6157    1.2919    0.2058 C   0  0  0  0  0  0  0  0  0  0  0  0 
    1.5332    0.3630   -0.4551 C   0  0  0  0  0  0  0  0  0  0  0  0 
   -1.1749    0.0187    0.1426 C   0  0  0  0  0  0  0  0  0  0  0  0 
    0.9807   -0.9066   -0.5179 C   0  0  0  0  0  0  0  0  0  0  0  0 
   -1.1936   -5.1282   -1.9140 C   0  0  0  0  0  0  0  0  0  0  0  0 
   -0.6326   -5.5038    0.4229 C   0  0  0  0  0  0  0  0  0  0  0  0 
    0.7408    1.4664   -0.0940 C   0  0  0  0  0  0  0  0  0  0  0  0 
   -0.3814   -1.0773   -0.2162 C   0  0  0  0  0  0  0  0  0  0  0  0 
   -1.1938   -4.5573   -0.5562 C   0  0  0  0  0  0  0  0  0  0  0  0 
    1.3975    2.8043   -0.0443 C   0  0  0  0  0  0  0  0  0  0  0  0 
   -1.2111   -5.5469   -2.9948 N   0  0  0  0  0  0  0  0  0  0  0  0 
   -0.2002   -6.2252    1.2207 N   0  0  0  0  0  0  0  0  0  0  0  0 
   -1.0645   -2.3257   -0.2466 N   0  0  0  0  0  0  0  0  0  0  0  0 
   -0.3590   -3.3086   -0.5569 N   0  0  0  0  0  0  0  0  0  0  0  0 
    0.5456    3.7965    0.3114 O   0  0  0  0  0  0  0  0  0  0  0  0 
    2.5681    3.0060   -0.2921 O   0  0  0  0  0  0  0  0  0  0  0  0 
   -1.2223    2.1462    0.4826 H   0  0  0  0  0  0  0  0  0  0  0  0 
    2.5807    0.5293   -0.6821 H   0  0  0  0  0  0  0  0  0  0  0  0 
   -2.2229   -0.1500    0.3681 H   0  0  0  0  0  0  0  0  0  0  0  0 
    1.5783   -1.7673   -0.7957 H   0  0  0  0  0  0  0  0  0  0  0  0 
   -2.2258   -4.3106   -0.2691 H   0  0  0  0  0  0  0  0  0  0  0  0 
    1.0736    4.6165    0.3122 H   0  0  0  0  0  0  0  0  0  0  0  0 
  1 17  1  0  0  0  0 
  2  7  1  0  0  0  0 
  3  1  1  0  0  0  0 
  3 19  1  0  0  0  0 
  4  2  2  0  0  0  0 
  4  8  1  0  0  0  0 
  5  9  1  0  0  0  0 
  6 12  3  0  0  0  0 
  7 10  1  0  0  0  0 
  7  1  2  0  0  0  0 
  8  3  2  0  0  0  0 
  9 21  1  0  0  0  0 
  9  6  1  0  0  0  0 
 10 15  1  0  0  0  0 
 11  5  3  0  0  0  0 
 13  8  1  0  0  0  0 
 14  9  1  0  0  0  0 
 14 13  1  0  0  0  0 
 15 22  1  0  0  0  0 
 16 10  2  0  0  0  0 
 18  2  1  0  0  0  0 
 20  4  1  0  0  0  0 
M  RAD  2  13   2  14   2 
M  END 
>  <HBA> 
6 
 
>  <HBD> 
1 
 
>  <TPSA> 
109.6 
 
>  <cid> 
21626 
 
>  <dipole> 
5.7 
 
>  <excitation_energy_1> 
2.962 
 
>  <excitation_energy_2> 
3.89 
 
>  <excitation_energy_3> 
4.102 
 
>  <excitation_energy_4> 
4.248 
 
>  <homo_energy> 
-7.592 
 
>  <homo_lumo_gap> 
4.34 
 
>  <logP> 
1.884 
 
>  <lumo_energy> 
-3.252 
 
>  <melting_point> 
185.02 
 
>  <molecular_refractivity> 
52.89 
 
>  <oscillator_strength_1> 
0.0002 
 
>  <oscillator_strength_2> 
0.0213 
 
>  <oscillator_strength_3> 
0.0 
 
>  <oscillator_strength_4> 
0.6109 
 
>  <open_babel_can_smiles> 
N#CC(C#N)[N][N]c1ccc(cc1)C(=O)O 
 
>  <mulliken_charges> 
22 
1   -0.167624 
2   -0.172372 
3   -0.138588 
4   -0.124931 
5   0.394376 
6   0.394017 
7   0.081808 
8   0.26216 
9   -0.104914 
10   0.547758 
11   -0.431384 
12   -0.431542 
13   -0.271187 
14   -0.159295 
15   -0.579397 
16   -0.460269 
17   0.176119 
18   0.182398 
19   0.161804 
20   0.179806 
21   0.242147 
22   0.419109 
 
>  <lowdin_charges> 
22 
1   -0.135355 
2   -0.119842 
3   -0.133217 
4   -0.140077 
5   -0.008435 
6   -0.007392 
7   -0.025716 
8   0.015985 
9   -0.059689 
10   0.191394 
11   -0.071308 
12   -0.071274 
13   -0.051461 
14   -0.07451 
15   -0.352492 
16   -0.256931 
17   0.182848 
18   0.184511 
19   0.175648 
20   0.185328 
21   0.203249 
22   0.368736 
 
$$$$ 
 
