PCCDB-ID:  66057 
public computational chemistry database (PCCDB) project, http://pccdb.org 
 
 19 19  0  0  1  0  0  0  0  0999 V2000 
    0.8922    0.0040   -0.0562 C   0  0  0  0  0  0  0  0  0  0  0  0 
    3.1085   -0.3882    2.9132 C   0  0  0  0  0  0  0  0  0  0  0  0 
    2.5565   -1.5535    2.0933 C   0  0  0  0  0  0  0  0  0  0  0  0 
    2.9754    1.0538    0.9855 C   0  0  0  0  0  0  0  0  0  0  0  0 
    2.4193   -0.0858    0.1160 C   0  0  1  0  0  0  0  0  0  0  0  0 
    2.5591    0.8599    2.3775 N   0  0  0  0  0  0  0  0  0  0  0  0 
    2.9108   -1.3546    0.6838 N   0  0  0  0  0  0  0  0  0  0  0  0 
    0.6180    0.9135   -0.6052 H   0  0  0  0  0  0  0  0  0  0  0  0 
    0.3816    0.0316    0.9103 H   0  0  0  0  0  0  0  0  0  0  0  0 
    0.5155   -0.8536   -0.6280 H   0  0  0  0  0  0  0  0  0  0  0  0 
    4.2139   -0.4200    2.8705 H   0  0  0  0  0  0  0  0  0  0  0  0 
    2.8035   -0.4914    3.9609 H   0  0  0  0  0  0  0  0  0  0  0  0 
    1.4700   -1.6267    2.2767 H   0  0  0  0  0  0  0  0  0  0  0  0 
    3.0125   -2.4921    2.4306 H   0  0  0  0  0  0  0  0  0  0  0  0 
    2.5874    2.0160    0.6322 H   0  0  0  0  0  0  0  0  0  0  0  0 
    4.0755    1.0655    0.8721 H   0  0  0  0  0  0  0  0  0  0  0  0 
    2.8817    0.0060   -0.8765 H   0  0  0  0  0  0  0  0  0  0  0  0 
    2.8726    1.6471    2.9411 H   0  0  0  0  0  0  0  0  0  0  0  0 
    2.5632   -2.1338    0.1280 H   0  0  0  0  0  0  0  0  0  0  0  0 
  1  5  1  0  0  0  0 
  1  9  1  0  0  0  0 
  2 12  1  0  0  0  0 
  3 13  1  0  0  0  0 
  3 14  1  0  0  0  0 
  3  2  1  0  0  0  0 
  4  6  1  0  0  0  0 
  5 17  1  6  0  0  0 
  5  7  1  0  0  0  0 
  5  4  1  0  0  0  0 
  6  2  1  0  0  0  0 
  6 18  1  0  0  0  0 
  7  3  1  0  0  0  0 
  8  1  1  0  0  0  0 
 10  1  1  0  0  0  0 
 11  2  1  0  0  0  0 
 15  4  1  0  0  0  0 
 16  4  1  0  0  0  0 
 19  7  1  0  0  0  0 
M  END 
>  <HBA> 
2 
 
>  <HBD> 
2 
 
>  <TPSA> 
24.06 
 
>  <cid> 
66057 
 
>  <dipole> 
0.18 
 
>  <excitation_energy_1> 
5.158 
 
>  <excitation_energy_2> 
5.322 
 
>  <excitation_energy_3> 
5.669 
 
>  <excitation_energy_4> 
5.848 
 
>  <homo_energy> 
-5.712 
 
>  <homo_lumo_gap> 
7.763 
 
>  <logP> 
0.225 
 
>  <lumo_energy> 
2.052 
 
>  <melting_point> 
51.04 
 
>  <molecular_refractivity> 
37.47 
 
>  <oscillator_strength_1> 
0.0092 
 
>  <oscillator_strength_2> 
0.0027 
 
>  <oscillator_strength_3> 
0.0062 
 
>  <oscillator_strength_4> 
0.0034 
 
>  <open_babel_can_smiles> 
C[C@H]1CNCCN1 
 
>  <mulliken_charges> 
19 
1   -0.451308 
2   -0.125221 
3   -0.120966 
4   -0.12733 
5   0.042044 
6   -0.555585 
7   -0.560496 
8   0.135338 
9   0.16779 
10   0.127852 
11   0.118963 
12   0.132053 
13   0.123547 
14   0.132398 
15   0.131071 
16   0.120437 
17   0.123257 
18   0.295783 
19   0.290374 
 
>  <lowdin_charges> 
19 
1   -0.465663 
2   -0.203481 
3   -0.205364 
4   -0.205004 
5   -0.066262 
6   -0.371471 
7   -0.372517 
8   0.148563 
9   0.158928 
10   0.142866 
11   0.118662 
12   0.143037 
13   0.121165 
14   0.144589 
15   0.143625 
16   0.121169 
17   0.138774 
18   0.255755 
19   0.252628 
 
$$$$ 
 
