PCCDB-ID:  51679 
public computational chemistry database (PCCDB) project, http://pccdb.org 
 
 25 24  0  0  0  0  0  0  0  0999 V2000 
    2.8536    2.0886   -2.5782 C   0  0  0  0  0  0  0  0  0  0  0  0 
    0.9519    1.5953   -0.9568 C   0  0  0  0  0  0  0  0  0  0  0  0 
    5.9975   -1.8325   -0.9810 C   0  0  0  0  0  0  0  0  0  0  0  0 
    4.6849   -0.7622    0.9008 C   0  0  0  0  0  0  0  0  0  0  0  0 
    2.3874    2.0718   -1.1265 C   0  0  0  0  0  0  0  0  0  0  0  0 
    4.4116    1.4038    0.0751 C   0  0  0  0  0  0  0  0  0  0  0  0 
    5.1835    0.5865    0.6804 N   0  0  0  0  0  0  0  0  0  0  0  0 
    3.6469   -2.1216   -0.8970 N   0  0  0  0  0  0  0  0  0  0  0  0 
    4.7343   -1.5878   -0.3119 N   0  0  0  0  0  0  0  0  0  0  0  0 
    4.8090    2.6770   -0.1528 O   0  0  0  0  0  0  0  0  0  0  0  0 
    2.5761   -1.9336   -0.3293 O   0  0  0  0  0  0  0  0  0  0  0  0 
    3.1901    1.1137   -0.3671 O   0  0  0  0  0  0  0  0  0  0  0  0 
    2.2330    2.7783   -3.1612 H   0  0  0  0  0  0  0  0  0  0  0  0 
    2.7663    1.0893   -3.0179 H   0  0  0  0  0  0  0  0  0  0  0  0 
    3.8926    2.4219   -2.6530 H   0  0  0  0  0  0  0  0  0  0  0  0 
    0.2715    2.2469   -1.5155 H   0  0  0  0  0  0  0  0  0  0  0  0 
    0.6605    1.6094    0.0978 H   0  0  0  0  0  0  0  0  0  0  0  0 
    0.8464    0.5705   -1.3269 H   0  0  0  0  0  0  0  0  0  0  0  0 
    6.4800   -0.8871   -1.2487 H   0  0  0  0  0  0  0  0  0  0  0  0 
    5.7878   -2.4128   -1.8816 H   0  0  0  0  0  0  0  0  0  0  0  0 
    6.6762   -2.3993   -0.3311 H   0  0  0  0  0  0  0  0  0  0  0  0 
    3.6428   -0.7966    1.2305 H   0  0  0  0  0  0  0  0  0  0  0  0 
    5.3232   -1.2347    1.6550 H   0  0  0  0  0  0  0  0  0  0  0  0 
    2.5228    3.0580   -0.6731 H   0  0  0  0  0  0  0  0  0  0  0  0 
    5.6949    2.7367    0.2476 H   0  0  0  0  0  0  0  0  0  0  0  0 
  1  5  1  0  0  0  0 
  2 17  1  0  0  0  0 
  3 21  1  0  0  0  0 
  3  9  1  0  0  0  0 
  4 22  1  0  0  0  0 
  4 23  1  0  0  0  0 
  5  2  1  0  0  0  0 
  5 24  1  0  0  0  0 
  5 12  1  0  0  0  0 
  6  7  2  0  0  0  0 
  7  4  1  0  0  0  0 
  8 11  2  0  0  0  0 
  8  9  1  0  0  0  0 
  9  4  1  0  0  0  0 
 10  6  1  0  0  0  0 
 10 25  1  0  0  0  0 
 12  6  1  0  0  0  0 
 13  1  1  0  0  0  0 
 14  1  1  0  0  0  0 
 15  1  1  0  0  0  0 
 16  2  1  0  0  0  0 
 18  2  1  0  0  0  0 
 19  3  1  0  0  0  0 
 20  3  1  0  0  0  0 
M  END 
>  <HBA> 
6 
 
>  <HBD> 
1 
 
>  <TPSA> 
71.0 
 
>  <cid> 
51679 
 
>  <dipole> 
3.43 
 
>  <excitation_energy_1> 
3.337 
 
>  <excitation_energy_2> 
5.368 
 
>  <excitation_energy_3> 
5.389 
 
>  <excitation_energy_4> 
5.622 
 
>  <homo_energy> 
-5.742 
 
>  <homo_lumo_gap> 
5.148 
 
>  <logP> 
1.083 
 
>  <lumo_energy> 
-0.593 
 
>  <melting_point> 
45.08 
 
>  <molecular_refractivity> 
43.07 
 
>  <oscillator_strength_1> 
0.0004 
 
>  <oscillator_strength_2> 
0.0046 
 
>  <oscillator_strength_3> 
0.014 
 
>  <oscillator_strength_4> 
0.0595 
 
>  <open_babel_can_smiles> 
CC(O/C(=N\CN(N=O)C)/O)C 
 
>  <mulliken_charges> 
25 
1   -0.462165 
2   -0.454577 
3   -0.303077 
4   -0.044984 
5   0.129083 
6   0.746543 
7   -0.519753 
8   0.148677 
9   -0.212071 
10   -0.602167 
11   -0.377932 
12   -0.469462 
13   0.150684 
14   0.166803 
15   0.163972 
16   0.146597 
17   0.161045 
18   0.1818 
19   0.1721 
20   0.18222 
21   0.159702 
22   0.19526 
23   0.156657 
24   0.159667 
25   0.425376 
 
>  <lowdin_charges> 
25 
1   -0.456054 
2   -0.446761 
3   -0.357281 
4   -0.14754 
5   0.019345 
6   0.200205 
7   -0.300772 
8   0.049159 
9   -0.048708 
10   -0.362589 
11   -0.272877 
12   -0.177974 
13   0.160218 
14   0.161373 
15   0.159693 
16   0.157583 
17   0.15991 
18   0.168951 
19   0.160403 
20   0.172303 
21   0.155323 
22   0.168492 
23   0.154388 
24   0.150411 
25   0.372798 
 
$$$$ 
 
