PCCDB-ID:  12155 
public computational chemistry database (PCCDB) project, http://pccdb.org 
 
 22 22  0  0  0  0  0  0  0  0999 V2000 
    5.9445   -1.6910    1.6826 C   0  0  0  0  0  0  0  0  0  0  0  0 
    5.2055   -0.3562    1.8164 C   0  0  0  0  0  0  0  0  0  0  0  0 
    7.0770    5.6798    3.1264 C   0  0  0  0  0  0  0  0  0  0  0  0 
    7.8989    4.5579    3.0515 C   0  0  0  0  0  0  0  0  0  0  0  0 
    5.7029    5.5343    2.9047 C   0  0  0  0  0  0  0  0  0  0  0  0 
    7.3701    3.2958    2.7612 C   0  0  0  0  0  0  0  0  0  0  0  0 
    5.1619    4.2870    2.6149 C   0  0  0  0  0  0  0  0  0  0  0  0 
    6.1471    0.7927    2.1522 C   0  0  0  0  0  0  0  0  0  0  0  0 
    5.9941    3.1596    2.5406 C   0  0  0  0  0  0  0  0  0  0  0  0 
    5.3673    1.9814    2.2482 O   0  0  0  0  0  0  0  0  0  0  0  0 
    5.2465   -2.5017    1.4492 H   0  0  0  0  0  0  0  0  0  0  0  0 
    6.4632   -1.9578    2.6115 H   0  0  0  0  0  0  0  0  0  0  0  0 
    6.6929   -1.6570    0.8815 H   0  0  0  0  0  0  0  0  0  0  0  0 
    4.4405   -0.4211    2.5998 H   0  0  0  0  0  0  0  0  0  0  0  0 
    4.6809   -0.1159    0.8837 H   0  0  0  0  0  0  0  0  0  0  0  0 
    7.4973    6.6556    3.3518 H   0  0  0  0  0  0  0  0  0  0  0  0 
    8.9684    4.6541    3.2211 H   0  0  0  0  0  0  0  0  0  0  0  0 
    5.0475    6.3997    2.9592 H   0  0  0  0  0  0  0  0  0  0  0  0 
    8.0306    2.4379    2.7090 H   0  0  0  0  0  0  0  0  0  0  0  0 
    4.0983    4.1563    2.4405 H   0  0  0  0  0  0  0  0  0  0  0  0 
    6.9135    0.9070    1.3706 H   0  0  0  0  0  0  0  0  0  0  0  0 
    6.6656    0.6036    3.1044 H   0  0  0  0  0  0  0  0  0  0  0  0 
  1  2  1  0  0  0  0 
  1 12  1  0  0  0  0 
  2  8  1  0  0  0  0 
  2 14  1  0  0  0  0 
  3 16  1  0  0  0  0 
  4  3  1  0  0  0  0 
  4 17  1  0  0  0  0 
  5 18  1  0  0  0  0 
  5  3  2  0  0  0  0 
  6  4  2  0  0  0  0 
  7  5  1  0  0  0  0 
  8 10  1  0  0  0  0 
  8 22  1  0  0  0  0 
  9  7  2  0  0  0  0 
  9  6  1  0  0  0  0 
 10  9  1  0  0  0  0 
 11  1  1  0  0  0  0 
 13  1  1  0  0  0  0 
 15  2  1  0  0  0  0 
 19  6  1  0  0  0  0 
 20  7  1  0  0  0  0 
 21  8  1  0  0  0  0 
M  END 
>  <HBA> 
1 
 
>  <HBD> 
0 
 
>  <TPSA> 
9.23 
 
>  <cid> 
12155 
 
>  <dipole> 
1.37 
 
>  <excitation_energy_1> 
5.043 
 
>  <excitation_energy_2> 
5.507 
 
>  <excitation_energy_3> 
5.75 
 
>  <excitation_energy_4> 
5.821 
 
>  <homo_energy> 
-5.807 
 
>  <homo_lumo_gap> 
5.951 
 
>  <logP> 
2.475 
 
>  <lumo_energy> 
0.144 
 
>  <melting_point> 
7.09 
 
>  <molecular_refractivity> 
42.55 
 
>  <oscillator_strength_1> 
0.0335 
 
>  <oscillator_strength_2> 
0.0006 
 
>  <oscillator_strength_3> 
0.1037 
 
>  <oscillator_strength_4> 
0.0078 
 
>  <open_babel_can_smiles> 
CCCOc1ccccc1 
 
>  <mulliken_charges> 
22 
1   -0.453836 
2   -0.26957 
3   -0.133972 
4   -0.137661 
5   -0.13285 
6   -0.195556 
7   -0.175714 
8   -0.022376 
9   0.378598 
10   -0.524215 
11   0.153759 
12   0.146495 
13   0.146693 
14   0.151562 
15   0.151709 
16   0.12367 
17   0.127432 
18   0.12835 
19   0.131021 
20   0.134517 
21   0.135956 
22   0.135988 
 
>  <lowdin_charges> 
22 
1   -0.446451 
2   -0.278631 
3   -0.180256 
4   -0.145014 
5   -0.148748 
6   -0.216956 
7   -0.182479 
8   -0.127669 
9   0.103736 
10   -0.202972 
11   0.157188 
12   0.14905 
13   0.1494 
14   0.15198 
15   0.15168 
16   0.155677 
17   0.154662 
18   0.158193 
19   0.161916 
20   0.163204 
21   0.136483 
22   0.136007 
 
$$$$ 
 
