PCCDB-ID:  12721 
public computational chemistry database (PCCDB) project, http://pccdb.org 
 
 21 20  0  0  0  0  0  0  0  0999 V2000 
    0.8843    0.4125   -1.9480 C   0  0  0  0  0  0  0  0  0  0  0  0 
    5.3811    1.2126   -0.3931 C   0  0  0  0  0  0  0  0  0  0  0  0 
    5.1666   -1.2913   -0.5185 C   0  0  0  0  0  0  0  0  0  0  0  0 
    5.2791    0.0694   -2.6309 C   0  0  0  0  0  0  0  0  0  0  0  0 
    2.3735    0.2913   -2.1146 C   0  0  0  0  0  0  0  0  0  0  0  0 
    3.2434    0.1671   -1.1087 C   0  0  0  0  0  0  0  0  0  0  0  0 
    4.7547    0.0416   -1.1858 C   0  0  0  0  0  0  0  0  0  0  0  0 
    0.5089    1.3510   -2.3787 H   0  0  0  0  0  0  0  0  0  0  0  0 
    0.5936    0.3862   -0.8920 H   0  0  0  0  0  0  0  0  0  0  0  0 
    0.3566   -0.4013   -2.4643 H   0  0  0  0  0  0  0  0  0  0  0  0 
    6.4748    1.1272   -0.3720 H   0  0  0  0  0  0  0  0  0  0  0  0 
    5.0262    1.2236    0.6447 H   0  0  0  0  0  0  0  0  0  0  0  0 
    5.1222    2.1765   -0.8459 H   0  0  0  0  0  0  0  0  0  0  0  0 
    6.2586   -1.3968   -0.4997 H   0  0  0  0  0  0  0  0  0  0  0  0 
    4.7499   -2.1473   -1.0616 H   0  0  0  0  0  0  0  0  0  0  0  0 
    4.8074   -1.3439    0.5165 H   0  0  0  0  0  0  0  0  0  0  0  0 
    6.3716   -0.0209   -2.6402 H   0  0  0  0  0  0  0  0  0  0  0  0 
    5.0173    1.0071   -3.1343 H   0  0  0  0  0  0  0  0  0  0  0  0 
    4.8710   -0.7586   -3.2219 H   0  0  0  0  0  0  0  0  0  0  0  0 
    2.7355    0.3083   -3.1422 H   0  0  0  0  0  0  0  0  0  0  0  0 
    2.8483    0.1524   -0.0889 H   0  0  0  0  0  0  0  0  0  0  0  0 
  1  9  1  0  0  0  0 
  2 11  1  0  0  0  0 
  2 12  1  0  0  0  0 
  3 14  1  0  0  0  0 
  3 16  1  0  0  0  0 
  4  7  1  0  0  0  0 
  5  1  1  0  0  0  0 
  5  6  2  0  0  0  0 
  6 21  1  0  0  0  0 
  7  6  1  0  0  0  0 
  7  3  1  0  0  0  0 
  7  2  1  0  0  0  0 
  8  1  1  0  0  0  0 
 10  1  1  0  0  0  0 
 13  2  1  0  0  0  0 
 15  3  1  0  0  0  0 
 17  4  1  0  0  0  0 
 18  4  1  0  0  0  0 
 19  4  1  0  0  0  0 
 20  5  1  0  0  0  0 
M  END 
>  <HBA> 
0 
 
>  <HBD> 
0 
 
>  <TPSA> 
0.0 
 
>  <cid> 
12721 
 
>  <dipole> 
0.06 
 
>  <excitation_energy_1> 
6.032 
 
>  <excitation_energy_2> 
6.401 
 
>  <excitation_energy_3> 
6.517 
 
>  <excitation_energy_4> 
6.727 
 
>  <homo_energy> 
-6.403 
 
>  <homo_lumo_gap> 
7.353 
 
>  <logP> 
2.609 
 
>  <lumo_energy> 
0.95 
 
>  <melting_point> 
1.25 
 
>  <molecular_refractivity> 
35.03 
 
>  <oscillator_strength_1> 
0.0202 
 
>  <oscillator_strength_2> 
0.0022 
 
>  <oscillator_strength_3> 
0.004 
 
>  <oscillator_strength_4> 
0.2223 
 
>  <open_babel_can_smiles> 
C/C=C/C(C)(C)C 
 
>  <mulliken_charges> 
21 
1   -0.486908 
2   -0.4397 
3   -0.439619 
4   -0.453527 
5   -0.09769 
6   -0.094172 
7   0.068612 
8   0.151887 
9   0.149978 
10   0.151855 
11   0.137008 
12   0.137453 
13   0.145292 
14   0.137004 
15   0.145241 
16   0.137451 
17   0.137443 
18   0.143132 
19   0.143018 
20   0.120247 
21   0.105994 
 
>  <lowdin_charges> 
21 
1   -0.438305 
2   -0.436062 
3   -0.437285 
4   -0.442186 
5   -0.173004 
6   -0.167415 
7   0.017716 
8   0.154744 
9   0.151613 
10   0.155569 
11   0.143876 
12   0.145375 
13   0.150041 
14   0.143945 
15   0.150979 
16   0.145442 
17   0.146528 
18   0.149169 
19   0.149865 
20   0.147891 
21   0.141503 
 
$$$$ 
 
