PCCDB-ID:  14044 
public computational chemistry database (PCCDB) project, http://pccdb.org 
 
 17 16  0  0  1  0  0  0  0  0999 V2000 
    1.2319    1.7037   -0.3299 C   0  0  0  0  0  0  0  0  0  0  0  0 
    2.1632    1.0749    0.3960 C   0  0  0  0  0  0  0  0  0  0  0  0 
    3.4048    1.7083    0.9650 C   0  0  0  0  0  0  0  0  0  0  0  0 
    4.7325    1.1085    0.4285 C   0  0  1  0  0  0  0  0  0  0  0  0 
    5.0741    1.5879   -1.0031 C   0  0  0  0  0  0  0  0  0  0  0  0 
    5.8085    1.3694    1.3776 N   0  0  0  0  0  0  0  0  0  0  0  0 
    6.1658    2.0109   -1.3007 O   0  0  0  0  0  0  0  0  0  0  0  0 
    4.1024    1.4782   -1.9379 O   0  0  0  0  0  0  0  0  0  0  0  0 
    0.3498    1.1872   -0.6982 H   0  0  0  0  0  0  0  0  0  0  0  0 
    1.3108    2.7633   -0.5657 H   0  0  0  0  0  0  0  0  0  0  0  0 
    2.0350    0.0127    0.6133 H   0  0  0  0  0  0  0  0  0  0  0  0 
    3.4251    1.5457    2.0497 H   0  0  0  0  0  0  0  0  0  0  0  0 
    3.3880    2.7936    0.8002 H   0  0  0  0  0  0  0  0  0  0  0  0 
    4.6068    0.0166    0.3666 H   0  0  0  0  0  0  0  0  0  0  0  0 
    5.9554    2.3789    1.4269 H   0  0  0  0  0  0  0  0  0  0  0  0 
    6.6766    1.0155    0.9758 H   0  0  0  0  0  0  0  0  0  0  0  0 
    3.2558    1.2116   -1.5279 H   0  0  0  0  0  0  0  0  0  0  0  0 
  1  2  2  0  0  0  0 
  2 11  1  0  0  0  0 
  2  3  1  0  0  0  0 
  3 12  1  0  0  0  0 
  4 14  1  6  0  0  0 
  4  3  1  0  0  0  0 
  4  6  1  0  0  0  0 
  5  4  1  0  0  0  0 
  6 15  1  0  0  0  0 
  7  5  2  0  0  0  0 
  8 17  1  0  0  0  0 
  8  5  1  0  0  0  0 
  9  1  1  0  0  0  0 
 10  1  1  0  0  0  0 
 13  3  1  0  0  0  0 
 16  6  1  0  0  0  0 
M  END 
>  <HBA> 
3 
 
>  <HBD> 
2 
 
>  <TPSA> 
63.32 
 
>  <cid> 
14044 
 
>  <dipole> 
3.71 
 
>  <excitation_energy_1> 
5.515 
 
>  <excitation_energy_2> 
5.643 
 
>  <excitation_energy_3> 
5.925 
 
>  <excitation_energy_4> 
6.291 
 
>  <homo_energy> 
-6.795 
 
>  <homo_lumo_gap> 
6.392 
 
>  <logP> 
0.675 
 
>  <lumo_energy> 
-0.403 
 
>  <melting_point> 
84.91 
 
>  <molecular_refractivity> 
30.15 
 
>  <oscillator_strength_1> 
0.0091 
 
>  <oscillator_strength_2> 
0.0018 
 
>  <oscillator_strength_3> 
0.0028 
 
>  <oscillator_strength_4> 
0.0093 
 
>  <open_babel_can_smiles> 
N[C@H](C(=O)O)CC=C 
 
>  <mulliken_charges> 
17 
1   -0.336552 
2   -0.104232 
3   -0.310909 
4   -0.102816 
5   0.570035 
6   -0.694529 
7   -0.450933 
8   -0.575616 
9   0.160418 
10   0.161865 
11   0.148645 
12   0.187587 
13   0.154394 
14   0.164678 
15   0.302168 
16   0.315096 
17   0.410699 
 
>  <lowdin_charges> 
17 
1   -0.330417 
2   -0.157706 
3   -0.278677 
4   -0.108119 
5   0.1676 
6   -0.530463 
7   -0.251351 
8   -0.360062 
9   0.168848 
10   0.164028 
11   0.157361 
12   0.174738 
13   0.152245 
14   0.155998 
15   0.256785 
16   0.266386 
17   0.352805 
 
$$$$ 
 
