PCCDB-ID:  46457 
public computational chemistry database (PCCDB) project, http://pccdb.org 
 
 30 31  0  0  1  0  0  0  0  0999 V2000 
    0.8826   -0.0336   -0.2814 C   0  0  0  0  0  0  0  0  0  0  0  0 
    2.9780   -1.1696   -0.3821 C   0  0  0  0  0  0  0  0  0  0  0  0 
    0.4735    4.7331   -1.1417 C   0  0  0  0  0  0  0  0  0  0  0  0 
    0.4995    3.7389   -2.1232 C   0  0  0  0  0  0  0  0  0  0  0  0 
    3.8275    2.1570    1.5291 C   0  0  0  0  0  0  0  0  0  0  0  0 
    1.2858    4.6098   -0.0186 C   0  0  0  0  0  0  0  0  0  0  0  0 
    3.0611    3.4749    1.3604 C   0  0  0  0  0  0  0  0  0  0  0  0 
    1.3246    2.6318   -1.9514 C   0  0  0  0  0  0  0  0  0  0  0  0 
    4.2556    1.5975    0.1698 C   0  0  0  0  0  0  0  0  0  0  0  0 
    2.1247    3.4996    0.1632 C   0  0  0  0  0  0  0  0  0  0  0  0 
    2.1277    2.4827   -0.8094 C   0  0  0  0  0  0  0  0  0  0  0  0 
    3.0097    1.2457   -0.6685 C   0  0  2  0  0  0  0  0  0  0  0  0 
    2.3163    0.0845   -0.0422 N   0  0  0  0  0  0  0  0  0  0  0  0 
    0.5047   -0.8774    0.3074 H   0  0  0  0  0  0  0  0  0  0  0  0 
    0.6154   -0.2212   -1.3400 H   0  0  0  0  0  0  0  0  0  0  0  0 
    0.3613    0.8676    0.0448 H   0  0  0  0  0  0  0  0  0  0  0  0 
    2.5403   -1.9853    0.2038 H   0  0  0  0  0  0  0  0  0  0  0  0 
    4.0440   -1.1261   -0.1435 H   0  0  0  0  0  0  0  0  0  0  0  0 
    2.8818   -1.4313   -1.4553 H   0  0  0  0  0  0  0  0  0  0  0  0 
   -0.1666    5.6038   -1.2584 H   0  0  0  0  0  0  0  0  0  0  0  0 
   -0.1141    3.8294   -3.0156 H   0  0  0  0  0  0  0  0  0  0  0  0 
    3.1910    1.4093    2.0147 H   0  0  0  0  0  0  0  0  0  0  0  0 
    4.6975    2.3162    2.1773 H   0  0  0  0  0  0  0  0  0  0  0  0 
    1.2839    5.3946    0.7358 H   0  0  0  0  0  0  0  0  0  0  0  0 
    3.7816    4.2977    1.2347 H   0  0  0  0  0  0  0  0  0  0  0  0 
    2.5002    3.7111    2.2744 H   0  0  0  0  0  0  0  0  0  0  0  0 
    1.3504    1.8579   -2.7153 H   0  0  0  0  0  0  0  0  0  0  0  0 
    4.8913    0.7160    0.3036 H   0  0  0  0  0  0  0  0  0  0  0  0 
    4.8547    2.3363   -0.3809 H   0  0  0  0  0  0  0  0  0  0  0  0 
    3.3290    0.9650   -1.6899 H   0  0  0  0  0  0  0  0  0  0  0  0 
  1 13  1  0  0  0  0 
  1 16  1  0  0  0  0 
  1 14  1  0  0  0  0 
  2 18  1  0  0  0  0 
  2 13  1  0  0  0  0 
  2 17  1  0  0  0  0 
  3  6  2  0  0  0  0 
  4  8  2  0  0  0  0 
  4  3  1  0  0  0  0 
  5 22  1  0  0  0  0 
  5 23  1  0  0  0  0 
  6 10  1  0  0  0  0 
  6 24  1  0  0  0  0 
  7  5  1  0  0  0  0 
  7 26  1  0  0  0  0 
  8 11  1  0  0  0  0 
  9 28  1  0  0  0  0 
  9  5  1  0  0  0  0 
 10  7  1  0  0  0  0 
 11 12  1  0  0  0  0 
 11 10  2  0  0  0  0 
 12 30  1  6  0  0  0 
 12 13  1  0  0  0  0 
 12  9  1  0  0  0  0 
 15  1  1  0  0  0  0 
 19  2  1  0  0  0  0 
 20  3  1  0  0  0  0 
 21  4  1  0  0  0  0 
 25  7  1  0  0  0  0 
 27  8  1  0  0  0  0 
 29  9  1  0  0  0  0 
M  END 
>  <HBA> 
1 
 
>  <HBD> 
0 
 
>  <TPSA> 
3.24 
 
>  <cid> 
46457 
 
>  <dipole> 
0.25 
 
>  <excitation_energy_1> 
4.626 
 
>  <excitation_energy_2> 
4.783 
 
>  <excitation_energy_3> 
5.124 
 
>  <excitation_energy_4> 
5.198 
 
>  <homo_energy> 
-5.529 
 
>  <homo_lumo_gap> 
5.551 
 
>  <logP> 
2.626 
 
>  <lumo_energy> 
0.022 
 
>  <melting_point> 
34.55 
 
>  <molecular_refractivity> 
56.38 
 
>  <oscillator_strength_1> 
0.0036 
 
>  <oscillator_strength_2> 
0.0178 
 
>  <oscillator_strength_3> 
0.0226 
 
>  <oscillator_strength_4> 
0.0112 
 
>  <open_babel_can_smiles> 
CN([C@@H]1CCCc2c1cccc2)C 
 
>  <mulliken_charges> 
30 
1   -0.296508 
2   -0.298767 
3   -0.126414 
4   -0.133302 
5   -0.265187 
6   -0.187905 
7   -0.342095 
8   -0.17688 
9   -0.272711 
10   0.128415 
11   0.075755 
12   -0.016962 
13   -0.37598 
14   0.142504 
15   0.112409 
16   0.167005 
17   0.148508 
18   0.150258 
19   0.115588 
20   0.126066 
21   0.12562 
22   0.159387 
23   0.127384 
24   0.11968 
25   0.149025 
26   0.146534 
27   0.124538 
28   0.131961 
29   0.131934 
30   0.110139 
 
>  <lowdin_charges> 
30 
1   -0.35897 
2   -0.355688 
3   -0.156007 
4   -0.16475 
5   -0.28301 
6   -0.166506 
7   -0.278221 
8   -0.160712 
9   -0.281987 
10   -0.006687 
11   -0.023572 
12   -0.05546 
13   -0.187657 
14   0.147891 
15   0.116346 
16   0.160668 
17   0.150727 
18   0.147356 
19   0.116974 
20   0.156421 
21   0.156301 
22   0.154641 
23   0.143817 
24   0.153912 
25   0.151812 
26   0.153315 
27   0.154456 
28   0.145077 
29   0.143427 
30   0.126085 
 
$$$$ 
 
