PCCDB-ID:  53667 
public computational chemistry database (PCCDB) project, http://pccdb.org 
 
 23 24  0  0  0  0  0  0  0  0999 V2000 
    0.9779   -0.0842   -0.0416 C   0  0  0  0  0  0  0  0  0  0  0  0 
    4.7356    3.5461   -0.0474 C   0  0  0  0  0  0  0  0  0  0  0  0 
    3.3210    3.5839   -0.0297 C   0  0  0  0  0  0  0  0  0  0  0  0 
    5.3879    2.3356   -0.0681 C   0  0  0  0  0  0  0  0  0  0  0  0 
    2.5868    2.4173   -0.0335 C   0  0  0  0  0  0  0  0  0  0  0  0 
    3.1854   -1.2732   -0.0754 C   0  0  0  0  0  0  0  0  0  0  0  0 
    5.3261   -0.1349   -0.0895 C   0  0  0  0  0  0  0  0  0  0  0  0 
    5.3026   -2.6173   -0.1087 C   0  0  0  0  0  0  0  0  0  0  0  0 
    2.4879   -0.0846   -0.0573 C   0  0  0  0  0  0  0  0  0  0  0  0 
    4.6041   -1.3128   -0.0913 C   0  0  0  0  0  0  0  0  0  0  0  0 
    4.6614    1.1129   -0.0712 C   0  0  0  0  0  0  0  0  0  0  0  0 
    3.2243    1.1475   -0.0541 C   0  0  0  0  0  0  0  0  0  0  0  0 
    6.5112   -2.7599   -0.1153 O   0  0  0  0  0  0  0  0  0  0  0  0 
    0.5909   -1.1072   -0.0468 H   0  0  0  0  0  0  0  0  0  0  0  0 
    0.5621    0.4336   -0.9151 H   0  0  0  0  0  0  0  0  0  0  0  0 
    0.5803    0.4177    0.8494 H   0  0  0  0  0  0  0  0  0  0  0  0 
    5.3011    4.4737   -0.0445 H   0  0  0  0  0  0  0  0  0  0  0  0 
    2.8101    4.5429   -0.0129 H   0  0  0  0  0  0  0  0  0  0  0  0 
    6.4741    2.2925   -0.0820 H   0  0  0  0  0  0  0  0  0  0  0  0 
    1.5030    2.4694   -0.0199 H   0  0  0  0  0  0  0  0  0  0  0  0 
    2.6383   -2.2146   -0.0776 H   0  0  0  0  0  0  0  0  0  0  0  0 
    6.4117   -0.1806   -0.1020 H   0  0  0  0  0  0  0  0  0  0  0  0 
    4.6288   -3.5035   -0.1161 H   0  0  0  0  0  0  0  0  0  0  0  0 
  1 16  1  0  0  0  0 
  2 17  1  0  0  0  0 
  2  3  2  0  0  0  0 
  3 18  1  0  0  0  0 
  4  2  1  0  0  0  0 
  5  3  1  0  0  0  0 
  5 20  1  0  0  0  0 
  6  9  2  0  0  0  0 
  7 11  1  0  0  0  0 
  8 10  1  0  0  0  0 
  9 12  1  0  0  0  0 
  9  1  1  0  0  0  0 
 10  7  2  0  0  0  0 
 10  6  1  0  0  0  0 
 11  4  2  0  0  0  0 
 11 12  1  0  0  0  0 
 12  5  2  0  0  0  0 
 13  8  2  0  0  0  0 
 14  1  1  0  0  0  0 
 15  1  1  0  0  0  0 
 19  4  1  0  0  0  0 
 21  6  1  0  0  0  0 
 22  7  1  0  0  0  0 
 23  8  1  0  0  0  0 
M  END 
>  <HBA> 
1 
 
>  <HBD> 
0 
 
>  <TPSA> 
17.07 
 
>  <cid> 
53667 
 
>  <dipole> 
3.82 
 
>  <excitation_energy_1> 
3.584 
 
>  <excitation_energy_2> 
3.642 
 
>  <excitation_energy_3> 
4.196 
 
>  <excitation_energy_4> 
5.038 
 
>  <homo_energy> 
-6.065 
 
>  <homo_lumo_gap> 
4.174 
 
>  <logP> 
2.961 
 
>  <lumo_energy> 
-1.891 
 
>  <melting_point> 
87.26 
 
>  <molecular_refractivity> 
54.3 
 
>  <oscillator_strength_1> 
0.0001 
 
>  <oscillator_strength_2> 
0.0675 
 
>  <oscillator_strength_3> 
0.0406 
 
>  <oscillator_strength_4> 
0.7028 
 
>  <open_babel_can_smiles> 
O=Cc1cc(C)c2c(c1)cccc2 
 
>  <mulliken_charges> 
23 
1   -0.537168 
2   -0.137244 
3   -0.126434 
4   -0.181969 
5   -0.199946 
6   -0.260912 
7   -0.241829 
8   0.192989 
9   0.137194 
10   0.106997 
11   0.139058 
12   0.086459 
13   -0.409811 
14   0.160608 
15   0.166307 
16   0.166266 
17   0.136919 
18   0.135804 
19   0.141057 
20   0.134401 
21   0.128869 
22   0.161879 
23   0.100507 
 
>  <lowdin_charges> 
23 
1   -0.443701 
2   -0.157177 
3   -0.146396 
4   -0.143483 
5   -0.159717 
6   -0.165093 
7   -0.118962 
8   0.043405 
9   0.001902 
10   -0.05923 
11   -0.000531 
12   0.000832 
13   -0.229944 
14   0.159882 
15   0.162654 
16   0.162499 
17   0.162287 
18   0.161309 
19   0.161116 
20   0.160317 
21   0.157521 
22   0.172853 
23   0.117659 
 
$$$$ 
 
