PCCDB-ID:  11515 
public computational chemistry database (PCCDB) project, http://pccdb.org 
 
 27 26  0  0  1  0  0  0  0  0999 V2000 
    4.8663   -0.8317   -2.8978 C   0  0  0  0  0  0  0  0  0  0  0  0 
    4.6233    4.8542    4.0739 C   0  0  0  0  0  0  0  0  0  0  0  0 
    4.4607   -0.4516   -1.4700 C   0  0  0  0  0  0  0  0  0  0  0  0 
    5.0558    4.4990    2.6480 C   0  0  0  0  0  0  0  0  0  0  0  0 
    4.9509    0.9419   -1.0569 C   0  0  0  0  0  0  0  0  0  0  0  0 
    4.6103    3.0967    2.2160 C   0  0  0  0  0  0  0  0  0  0  0  0 
    4.5545    1.3300    0.3725 C   0  0  0  0  0  0  0  0  0  0  0  0 
    5.0834    2.7039    0.8090 C   0  0  2  0  0  0  0  0  0  0  0  0 
    6.5119    2.7696    0.7040 O   0  0  0  0  0  0  0  0  0  0  0  0 
    4.5050   -1.8313   -3.1650 H   0  0  0  0  0  0  0  0  0  0  0  0 
    5.9572   -0.8288   -3.0127 H   0  0  0  0  0  0  0  0  0  0  0  0 
    4.4564   -0.1228   -3.6278 H   0  0  0  0  0  0  0  0  0  0  0  0 
    4.9560    5.8607    4.3524 H   0  0  0  0  0  0  0  0  0  0  0  0 
    5.0445    4.1516    4.8040 H   0  0  0  0  0  0  0  0  0  0  0  0 
    3.5316    4.8235    4.1800 H   0  0  0  0  0  0  0  0  0  0  0  0 
    4.8562   -1.1986   -0.7666 H   0  0  0  0  0  0  0  0  0  0  0  0 
    3.3661   -0.4971   -1.3760 H   0  0  0  0  0  0  0  0  0  0  0  0 
    6.1460    4.5675    2.5563 H   0  0  0  0  0  0  0  0  0  0  0  0 
    4.6448    5.2374    1.9450 H   0  0  0  0  0  0  0  0  0  0  0  0 
    4.5503    1.6901   -1.7572 H   0  0  0  0  0  0  0  0  0  0  0  0 
    6.0429    0.9953   -1.1500 H   0  0  0  0  0  0  0  0  0  0  0  0 
    3.5138    3.0255    2.2563 H   0  0  0  0  0  0  0  0  0  0  0  0 
    4.9883    2.3512    2.9351 H   0  0  0  0  0  0  0  0  0  0  0  0 
    4.9262    0.5699    1.0794 H   0  0  0  0  0  0  0  0  0  0  0  0 
    3.4594    1.3234    0.4707 H   0  0  0  0  0  0  0  0  0  0  0  0 
    4.7336    3.4607    0.0939 H   0  0  0  0  0  0  0  0  0  0  0  0 
    6.8722    2.1114    1.3216 H   0  0  0  0  0  0  0  0  0  0  0  0 
  1  3  1  0  0  0  0 
  2 15  1  0  0  0  0 
  2 13  1  0  0  0  0 
  2 14  1  0  0  0  0 
  3 17  1  0  0  0  0 
  3  5  1  0  0  0  0 
  3 16  1  0  0  0  0 
  4  2  1  0  0  0  0 
  5  7  1  0  0  0  0 
  6 22  1  0  0  0  0 
  6  4  1  0  0  0  0 
  6 23  1  0  0  0  0 
  7 25  1  0  0  0  0 
  7  8  1  0  0  0  0 
  7 24  1  0  0  0  0 
  8 26  1  6  0  0  0 
  8  6  1  0  0  0  0 
  9  8  1  0  0  0  0 
  9 27  1  0  0  0  0 
 10  1  1  0  0  0  0 
 11  1  1  0  0  0  0 
 12  1  1  0  0  0  0 
 18  4  1  0  0  0  0 
 19  4  1  0  0  0  0 
 20  5  1  0  0  0  0 
 21  5  1  0  0  0  0 
M  END 
>  <HBA> 
1 
 
>  <HBD> 
1 
 
>  <TPSA> 
20.23 
 
>  <cid> 
11515 
 
>  <dipole> 
1.45 
 
>  <excitation_energy_1> 
6.576 
 
>  <excitation_energy_2> 
7.09 
 
>  <excitation_energy_3> 
7.237 
 
>  <excitation_energy_4> 
7.334 
 
>  <homo_energy> 
-7.048 
 
>  <homo_lumo_gap> 
8.977 
 
>  <logP> 
2.338 
 
>  <lumo_energy> 
1.929 
 
>  <melting_point> 
-9.27 
 
>  <molecular_refractivity> 
41.73 
 
>  <oscillator_strength_1> 
0.011 
 
>  <oscillator_strength_2> 
0.0046 
 
>  <oscillator_strength_3> 
0.0002 
 
>  <oscillator_strength_4> 
0.0151 
 
>  <open_babel_can_smiles> 
CCCC[C@@H](CCC)O 
 
>  <mulliken_charges> 
27 
1   -0.440713 
2   -0.442771 
3   -0.247677 
4   -0.245046 
5   -0.2435 
6   -0.265454 
7   -0.273936 
8   0.133311 
9   -0.620343 
10   0.1404 
11   0.142469 
12   0.141783 
13   0.143328 
14   0.138578 
15   0.139393 
16   0.1271 
17   0.128013 
18   0.147759 
19   0.130141 
20   0.126483 
21   0.143891 
22   0.128409 
23   0.113908 
24   0.11439 
25   0.128888 
26   0.131083 
27   0.38011 
 
>  <lowdin_charges> 
27 
1   -0.442884 
2   -0.443155 
3   -0.271178 
4   -0.273068 
5   -0.275399 
6   -0.290064 
7   -0.289872 
8   -0.0011 
9   -0.465814 
10   0.147997 
11   0.144971 
12   0.147627 
13   0.149386 
14   0.145809 
15   0.142898 
16   0.138132 
17   0.135086 
18   0.146238 
19   0.141112 
20   0.139603 
21   0.144595 
22   0.14114 
23   0.133602 
24   0.13383 
25   0.141473 
26   0.141508 
27   0.337524 
 
$$$$ 
 
