PCCDB-ID:  10935 
public computational chemistry database (PCCDB) project, http://pccdb.org 
 
 10 10  0  0  0  0  0  0  0  0999 V2000 
    0.7460   -0.9644   -0.0009 C   0  0  0  0  0  0  0  0  0  0  0  0 
    1.1744    0.2988    0.0004 C   0  0  0  0  0  0  0  0  0  0  0  0 
   -0.7562   -0.8665   -0.0037 C   0  0  0  0  0  0  0  0  0  0  0  0 
   -0.0813    1.1697   -0.0020 C   0  0  0  0  0  0  0  0  0  0  0  0 
   -1.2322    0.3302   -0.0043 N   0  0  0  0  0  0  0  0  0  0  0  0 
   -1.5499   -1.9388   -0.0054 O   0  0  0  0  0  0  0  0  0  0  0  0 
   -0.0921    2.3777   -0.0023 O   0  0  0  0  0  0  0  0  0  0  0  0 
    1.3178   -1.8866   -0.0002 H   0  0  0  0  0  0  0  0  0  0  0  0 
    2.1826    0.6921    0.0026 H   0  0  0  0  0  0  0  0  0  0  0  0 
   -1.0124   -2.7476   -0.0041 H   0  0  0  0  0  0  0  0  0  0  0  0 
  1  8  1  0  0  0  0 
  1  2  2  0  0  0  0 
  2  9  1  0  0  0  0 
  3  1  1  0  0  0  0 
  4  2  1  0  0  0  0 
  5  3  2  0  0  0  0 
  5  4  1  0  0  0  0 
  6 10  1  0  0  0  0 
  6  3  1  0  0  0  0 
  7  4  2  0  0  0  0 
M  END 
>  <HBA> 
3 
 
>  <HBD> 
1 
 
>  <TPSA> 
46.17 
 
>  <cid> 
10935 
 
>  <dipole> 
6.3 
 
>  <excitation_energy_1> 
3.013 
 
>  <excitation_energy_2> 
3.784 
 
>  <excitation_energy_3> 
4.046 
 
>  <excitation_energy_4> 
5.758 
 
>  <homo_energy> 
-7.257 
 
>  <homo_lumo_gap> 
4.444 
 
>  <logP> 
-0.472 
 
>  <lumo_energy> 
-2.814 
 
>  <melting_point> 
77.09 
 
>  <molecular_refractivity> 
25.87 
 
>  <oscillator_strength_1> 
0.0 
 
>  <oscillator_strength_2> 
0.0067 
 
>  <oscillator_strength_3> 
0.0003 
 
>  <oscillator_strength_4> 
0.1646 
 
>  <open_babel_can_smiles> 
OC1=NC(=O)C=C1 
 
>  <mulliken_charges> 
10 
1   -0.18039 
2   -0.156513 
3   0.515129 
4   0.538209 
5   -0.48098 
6   -0.564496 
7   -0.427605 
8   0.160408 
9   0.173065 
10   0.423171 
 
>  <lowdin_charges> 
10 
1   -0.198989 
2   -0.150518 
3   0.153185 
4   0.169747 
5   -0.217757 
6   -0.302247 
7   -0.179499 
8   0.171861 
9   0.183874 
10   0.370343 
 
$$$$ 
 
