PCCDB-ID:  13623 
public computational chemistry database (PCCDB) project, http://pccdb.org 
 
 17 18  0  0  0  0  0  0  0  0999 V2000 
    2.1131   -0.6701   -0.0524 C   0  0  0  0  0  0  0  0  0  0  0  0 
    0.9256   -1.3861   -0.0147 C   0  0  0  0  0  0  0  0  0  0  0  0 
    0.9339    1.4699   -0.0307 C   0  0  0  0  0  0  0  0  0  0  0  0 
   -2.3252   -0.0593    0.0704 C   0  0  0  0  0  0  0  0  0  0  0  0 
    2.1332    0.7490   -0.0605 C   0  0  0  0  0  0  0  0  0  0  0  0 
   -0.2834   -0.6803    0.0144 C   0  0  0  0  0  0  0  0  0  0  0  0 
   -0.2516    0.7339    0.0027 C   0  0  0  0  0  0  0  0  0  0  0  0 
    3.3633    1.4184   -0.1612 N   0  0  0  0  0  0  0  0  0  0  0  0 
   -1.5957   -1.1418    0.0583 N   0  0  0  0  0  0  0  0  0  0  0  0 
   -1.5832    1.1065    0.0406 N   0  0  0  0  0  0  0  0  0  0  0  0 
    3.0614   -1.2017   -0.0836 H   0  0  0  0  0  0  0  0  0  0  0  0 
    0.9262   -2.4718   -0.0050 H   0  0  0  0  0  0  0  0  0  0  0  0 
    0.9381    2.5572   -0.0436 H   0  0  0  0  0  0  0  0  0  0  0  0 
   -3.4073   -0.0331    0.1007 H   0  0  0  0  0  0  0  0  0  0  0  0 
    4.1477    0.8992    0.2151 H   0  0  0  0  0  0  0  0  0  0  0  0 
    3.3545    2.3637    0.2034 H   0  0  0  0  0  0  0  0  0  0  0  0 
   -1.9479    2.0472    0.0353 H   0  0  0  0  0  0  0  0  0  0  0  0 
  1  2  1  0  0  0  0 
  2 12  1  0  0  0  0 
  2  6  2  0  0  0  0 
  3  7  2  0  0  0  0 
  4 14  1  0  0  0  0 
  5  1  2  0  0  0  0 
  5  3  1  0  0  0  0 
  6  9  1  0  0  0  0 
  7  6  1  0  0  0  0 
  7 10  1  0  0  0  0 
  8  5  1  0  0  0  0 
  8 16  1  0  0  0  0 
  8 15  1  0  0  0  0 
  9  4  2  0  0  0  0 
 10  4  1  0  0  0  0 
 11  1  1  0  0  0  0 
 13  3  1  0  0  0  0 
 17 10  1  0  0  0  0 
M  END 
>  <HBA> 
2 
 
>  <HBD> 
2 
 
>  <TPSA> 
54.7 
 
>  <cid> 
13623 
 
>  <dipole> 
4.01 
 
>  <excitation_energy_1> 
4.41 
 
>  <excitation_energy_2> 
4.498 
 
>  <excitation_energy_3> 
4.725 
 
>  <excitation_energy_4> 
5.037 
 
>  <homo_energy> 
-5.113 
 
>  <homo_lumo_gap> 
5.04 
 
>  <logP> 
1.726 
 
>  <lumo_energy> 
-0.073 
 
>  <melting_point> 
160.59 
 
>  <molecular_refractivity> 
40.5 
 
>  <oscillator_strength_1> 
0.1212 
 
>  <oscillator_strength_2> 
0.009 
 
>  <oscillator_strength_3> 
0.0048 
 
>  <oscillator_strength_4> 
0.0344 
 
>  <open_babel_can_smiles> 
Nc1ccc2c(c1)[nH]cn2 
 
>  <mulliken_charges> 
17 
1   -0.187907 
2   -0.179478 
3   -0.22941 
4   0.220612 
5   0.296522 
6   0.218272 
7   0.346916 
8   -0.787731 
9   -0.493293 
10   -0.687455 
11   0.114834 
12   0.138267 
13   0.113018 
14   0.155085 
15   0.317927 
16   0.315274 
17   0.328545 
 
>  <lowdin_charges> 
17 
1   -0.207918 
2   -0.142051 
3   -0.234232 
4   -0.068057 
5   0.060126 
6   -0.012543 
7   0.027084 
8   -0.492708 
9   -0.189067 
10   -0.210161 
11   0.152949 
12   0.164403 
13   0.150137 
14   0.163737 
15   0.274876 
16   0.271076 
17   0.29235 
 
$$$$ 
 
