PCCDB-ID:  17451 
public computational chemistry database (PCCDB) project, http://pccdb.org 
 
 20 20  0  0  0  0  0  0  0  0999 V2000 
    2.2641    1.6050    1.3097 C   0  0  0  0  0  0  0  0  0  0  0  0 
   -2.5613   -2.8380    0.6683 C   0  0  0  0  0  0  0  0  0  0  0  0 
   -1.6820   -3.4479   -0.2294 C   0  0  0  0  0  0  0  0  0  0  0  0 
   -2.0744   -1.8693    1.5477 C   0  0  0  0  0  0  0  0  0  0  0  0 
   -0.3359   -3.0922   -0.2449 C   0  0  0  0  0  0  0  0  0  0  0  0 
   -0.7299   -1.4991    1.5294 C   0  0  0  0  0  0  0  0  0  0  0  0 
    0.1595   -2.1031    0.6221 C   0  0  0  0  0  0  0  0  0  0  0  0 
    2.0953   -0.7332    0.8116 C   0  0  0  0  0  0  0  0  0  0  0  0 
    1.5411   -1.8481    0.5549 N   0  0  0  0  0  0  0  0  0  0  0  0 
    3.4422   -0.6104    0.7341 O   0  0  0  0  0  0  0  0  0  0  0  0 
    1.4817    0.4092    1.1563 O   0  0  0  0  0  0  0  0  0  0  0  0 
    3.0028    1.4897    2.1071 H   0  0  0  0  0  0  0  0  0  0  0  0 
    1.5449    2.3819    1.5716 H   0  0  0  0  0  0  0  0  0  0  0  0 
    2.7718    1.8619    0.3761 H   0  0  0  0  0  0  0  0  0  0  0  0 
   -3.6108   -3.1191    0.6874 H   0  0  0  0  0  0  0  0  0  0  0  0 
   -2.0440   -4.2097   -0.9154 H   0  0  0  0  0  0  0  0  0  0  0  0 
   -2.7466   -1.3942    2.2582 H   0  0  0  0  0  0  0  0  0  0  0  0 
    0.3598   -3.5697   -0.9285 H   0  0  0  0  0  0  0  0  0  0  0  0 
   -0.3663   -0.7464    2.2191 H   0  0  0  0  0  0  0  0  0  0  0  0 
    3.7571   -1.4929    0.4690 H   0  0  0  0  0  0  0  0  0  0  0  0 
  1 13  1  0  0  0  0 
  1 12  1  0  0  0  0 
  2 15  1  0  0  0  0 
  2  4  2  0  0  0  0 
  3  2  1  0  0  0  0 
  4 17  1  0  0  0  0 
  5  3  2  0  0  0  0 
  5  7  1  0  0  0  0 
  6  4  1  0  0  0  0 
  6 19  1  0  0  0  0 
  7  6  2  0  0  0  0 
  8 11  1  0  0  0  0 
  9  7  1  0  0  0  0 
  9  8  2  0  0  0  0 
 10  8  1  0  0  0  0 
 11  1  1  0  0  0  0 
 14  1  1  0  0  0  0 
 16  3  1  0  0  0  0 
 18  5  1  0  0  0  0 
 20 10  1  0  0  0  0 
M  END 
>  <HBA> 
3 
 
>  <HBD> 
1 
 
>  <TPSA> 
38.33 
 
>  <cid> 
17451 
 
>  <dipole> 
2.62 
 
>  <excitation_energy_1> 
4.908 
 
>  <excitation_energy_2> 
5.053 
 
>  <excitation_energy_3> 
5.114 
 
>  <excitation_energy_4> 
5.615 
 
>  <homo_energy> 
-5.589 
 
>  <homo_lumo_gap> 
5.567 
 
>  <logP> 
1.938 
 
>  <lumo_energy> 
-0.022 
 
>  <melting_point> 
59.98 
 
>  <molecular_refractivity> 
42.23 
 
>  <oscillator_strength_1> 
0.0399 
 
>  <oscillator_strength_2> 
0.129 
 
>  <oscillator_strength_3> 
0.2096 
 
>  <oscillator_strength_4> 
0.002 
 
>  <open_babel_can_smiles> 
CO/C(=N\c1ccccc1)/O 
 
>  <mulliken_charges> 
20 
1   -0.21184 
2   -0.130484 
3   -0.13561 
4   -0.14333 
5   -0.155272 
6   -0.147899 
7   0.268274 
8   0.731425 
9   -0.583827 
10   -0.602693 
11   -0.459074 
12   0.172968 
13   0.17383 
14   0.171856 
15   0.121145 
16   0.123352 
17   0.122536 
18   0.124492 
19   0.133493 
20   0.426658 
 
>  <lowdin_charges> 
20 
1   -0.272881 
2   -0.170089 
3   -0.157371 
4   -0.157924 
5   -0.170756 
6   -0.182201 
7   0.051213 
8   0.204669 
9   -0.243531 
10   -0.364358 
11   -0.182269 
12   0.159914 
13   0.166427 
14   0.159562 
15   0.152694 
16   0.155736 
17   0.155361 
18   0.16069 
19   0.162076 
20   0.373036 
 
$$$$ 
 
