PCCDB-ID:  17626 
public computational chemistry database (PCCDB) project, http://pccdb.org 
 
 15 15  0  0  0  0  0  0  0  0999 V2000 
   -0.6644    1.1712    0.1217 C   0  0  0  0  0  0  0  0  0  0  0  0 
    1.6028    0.3495   -0.1916 C   0  0  0  0  0  0  0  0  0  0  0  0 
   -1.1010   -0.1210    0.3774 C   0  0  0  0  0  0  0  0  0  0  0  0 
    1.1721   -0.9447    0.0635 C   0  0  0  0  0  0  0  0  0  0  0  0 
    1.1365    2.7535   -0.4299 C   0  0  0  0  0  0  0  0  0  0  0  0 
   -0.9694   -3.5677    0.8433 C   0  0  0  0  0  0  0  0  0  0  0  0 
    0.6897    1.4183   -0.1650 C   0  0  0  0  0  0  0  0  0  0  0  0 
   -0.1829   -1.1861    0.3529 C   0  0  0  0  0  0  0  0  0  0  0  0 
    1.4992    3.8378   -0.6452 N   0  0  0  0  0  0  0  0  0  0  0  0 
   -0.6087   -2.4603    0.6064 N   0  0  0  0  0  0  0  0  0  0  0  0 
   -1.4544   -5.0488    1.1560 S   0  0  0  0  0  0  0  0  0  0  0  0 
   -1.3681    1.9967    0.1413 H   0  0  0  0  0  0  0  0  0  0  0  0 
    2.6473    0.5409   -0.4138 H   0  0  0  0  0  0  0  0  0  0  0  0 
   -2.1438   -0.3210    0.5991 H   0  0  0  0  0  0  0  0  0  0  0  0 
    1.8689   -1.7757    0.0454 H   0  0  0  0  0  0  0  0  0  0  0  0 
  1 12  1  0  0  0  0 
  1  3  2  0  0  0  0 
  2  7  2  0  0  0  0 
  2  4  1  0  0  0  0 
  3 14  1  0  0  0  0 
  4  8  2  0  0  0  0 
  5  7  1  0  0  0  0 
  6 11  2  0  0  0  0 
  7  1  1  0  0  0  0 
  8  3  1  0  0  0  0 
  8 10  1  0  0  0  0 
  9  5  3  0  0  0  0 
 10  6  2  0  0  0  0 
 13  2  1  0  0  0  0 
 15  4  1  0  0  0  0 
M  END 
>  <HBA> 
3 
 
>  <HBD> 
0 
 
>  <TPSA> 
68.24 
 
>  <cid> 
17626 
 
>  <dipole> 
1.37 
 
>  <excitation_energy_1> 
3.999 
 
>  <excitation_energy_2> 
4.191 
 
>  <excitation_energy_3> 
4.612 
 
>  <excitation_energy_4> 
5.111 
 
>  <homo_energy> 
-6.765 
 
>  <homo_lumo_gap> 
4.484 
 
>  <logP> 
2.293 
 
>  <lumo_energy> 
-2.28 
 
>  <melting_point> 
98.84 
 
>  <molecular_refractivity> 
45.84 
 
>  <oscillator_strength_1> 
0.0 
 
>  <oscillator_strength_2> 
0.6546 
 
>  <oscillator_strength_3> 
0.0002 
 
>  <oscillator_strength_4> 
0.0 
 
>  <open_babel_can_smiles> 
S=C=Nc1ccc(cc1)C#N 
 
>  <mulliken_charges> 
15 
1   -0.148949 
2   -0.149071 
3   -0.130067 
4   -0.12996 
5   0.237654 
6   0.143432 
7   0.14275 
8   0.294849 
9   -0.469739 
10   -0.387612 
11   -0.084601 
12   0.172231 
13   0.172208 
14   0.168448 
15   0.168427 
 
>  <lowdin_charges> 
15 
1   -0.123943 
2   -0.121438 
3   -0.150613 
4   -0.153116 
5   -0.015178 
6   -0.037851 
7   -0.018366 
8   0.072938 
9   -0.108395 
10   -0.056618 
11   -0.008795 
12   0.182135 
13   0.179978 
14   0.178624 
15   0.180639 
 
$$$$ 
 
