PCCDB-ID:  18608 
public computational chemistry database (PCCDB) project, http://pccdb.org 
 
 31 31  0  0  1  0  0  0  0  0999 V2000 
   -0.8396   -0.4305   -3.1913 C   0  0  0  0  0  0  0  0  0  0  0  0 
    5.8019    0.1093   -2.2499 C   0  0  0  0  0  0  0  0  0  0  0  0 
   -0.4505   -0.5201   -1.7230 C   0  0  0  0  0  0  0  0  0  0  0  0 
    3.5801    1.4396   -6.6948 C   0  0  0  0  0  0  0  0  0  0  0  0 
    3.5541    0.1868   -6.0769 C   0  0  0  0  0  0  0  0  0  0  0  0 
    3.9453    2.5633   -5.9533 C   0  0  0  0  0  0  0  0  0  0  0  0 
    3.8930    0.0637   -4.7299 C   0  0  0  0  0  0  0  0  0  0  0  0 
    4.2813    2.4328   -4.6039 C   0  0  0  0  0  0  0  0  0  0  0  0 
    4.6192    1.0553   -2.4914 C   0  0  1  0  0  0  0  0  0  0  0  0 
    4.2647    1.1842   -3.9727 C   0  0  0  0  0  0  0  0  0  0  0  0 
    1.2765    1.1586   -1.5462 C   0  0  0  0  0  0  0  0  0  0  0  0 
    3.5017    0.6176   -1.6386 N   0  0  0  0  0  0  0  0  0  0  0  0 
    2.4732    1.5786   -1.6272 N   0  0  0  0  0  0  0  0  0  0  0  0 
    0.2365    2.0308   -1.4575 O   0  0  0  0  0  0  0  0  0  0  0  0 
    0.9280   -0.1440   -1.5012 O   0  0  0  0  0  0  0  0  0  0  0  0 
   -1.8593   -0.8088   -3.3290 H   0  0  0  0  0  0  0  0  0  0  0  0 
   -0.1626   -1.0294   -3.8090 H   0  0  0  0  0  0  0  0  0  0  0  0 
   -0.8099    0.6059   -3.5401 H   0  0  0  0  0  0  0  0  0  0  0  0 
    6.6783    0.4345   -2.8197 H   0  0  0  0  0  0  0  0  0  0  0  0 
    5.5674   -0.9158   -2.5619 H   0  0  0  0  0  0  0  0  0  0  0  0 
    6.0532    0.0893   -1.1852 H   0  0  0  0  0  0  0  0  0  0  0  0 
   -0.4953   -1.5515   -1.3643 H   0  0  0  0  0  0  0  0  0  0  0  0 
   -1.0991    0.0971   -1.0965 H   0  0  0  0  0  0  0  0  0  0  0  0 
    3.3166    1.5373   -7.7447 H   0  0  0  0  0  0  0  0  0  0  0  0 
    3.2721   -0.6954   -6.6463 H   0  0  0  0  0  0  0  0  0  0  0  0 
    3.9650    3.5437   -6.4228 H   0  0  0  0  0  0  0  0  0  0  0  0 
    3.8683   -0.9201   -4.2646 H   0  0  0  0  0  0  0  0  0  0  0  0 
    4.5609    3.3133   -4.0296 H   0  0  0  0  0  0  0  0  0  0  0  0 
    4.8877    2.0520   -2.1245 H   0  0  0  0  0  0  0  0  0  0  0  0 
    3.1451   -0.2873   -1.9564 H   0  0  0  0  0  0  0  0  0  0  0  0 
    0.6429    2.9142   -1.4903 H   0  0  0  0  0  0  0  0  0  0  0  0 
  1  3  1  0  0  0  0 
  2 21  1  0  0  0  0 
  3 15  1  0  0  0  0 
  3 22  1  0  0  0  0 
  3 23  1  0  0  0  0 
  4  5  2  0  0  0  0 
  4  6  1  0  0  0  0 
  5  7  1  0  0  0  0 
  6  8  2  0  0  0  0 
  7 27  1  0  0  0  0 
  7 10  2  0  0  0  0 
  8 28  1  0  0  0  0 
  8 10  1  0  0  0  0 
  9  2  1  0  0  0  0 
  9 29  1  1  0  0  0 
  9 12  1  0  0  0  0 
 10  9  1  0  0  0  0 
 11 15  1  0  0  0  0 
 11 14  1  0  0  0  0 
 12 13  1  0  0  0  0 
 13 11  2  0  0  0  0 
 16  1  1  0  0  0  0 
 17  1  1  0  0  0  0 
 18  1  1  0  0  0  0 
 19  2  1  0  0  0  0 
 20  2  1  0  0  0  0 
 24  4  1  0  0  0  0 
 25  5  1  0  0  0  0 
 26  6  1  0  0  0  0 
 30 12  1  0  0  0  0 
 31 14  1  0  0  0  0 
M  END 
>  <HBA> 
4 
 
>  <HBD> 
2 
 
>  <TPSA> 
50.36 
 
>  <cid> 
18608 
 
>  <dipole> 
2.29 
 
>  <excitation_energy_1> 
4.379 
 
>  <excitation_energy_2> 
4.509 
 
>  <excitation_energy_3> 
4.675 
 
>  <excitation_energy_4> 
4.969 
 
>  <homo_energy> 
-5.089 
 
>  <homo_lumo_gap> 
5.181 
 
>  <logP> 
2.78 
 
>  <lumo_energy> 
0.093 
 
>  <melting_point> 
81.63 
 
>  <molecular_refractivity> 
57.91 
 
>  <oscillator_strength_1> 
0.0021 
 
>  <oscillator_strength_2> 
0.0304 
 
>  <oscillator_strength_3> 
0.0042 
 
>  <oscillator_strength_4> 
0.0037 
 
>  <open_babel_can_smiles> 
CCO/C(=N\N[C@H](c1ccccc1)C)/O 
 
>  <mulliken_charges> 
31 
1   -0.463294 
2   -0.447331 
3   -0.036348 
4   -0.132025 
5   -0.130361 
6   -0.127064 
7   -0.193295 
8   -0.189073 
9   -0.056402 
10   0.198698 
11   0.737572 
12   -0.427606 
13   -0.381464 
14   -0.614696 
15   -0.491538 
16   0.149982 
17   0.160606 
18   0.173812 
19   0.151381 
20   0.138431 
21   0.160202 
22   0.156464 
23   0.170885 
24   0.125525 
25   0.12491 
26   0.125865 
27   0.11725 
28   0.12602 
29   0.145815 
30   0.30266 
31   0.424421 
 
>  <lowdin_charges> 
31 
1   -0.45726 
2   -0.44354 
3   -0.120832 
4   -0.159994 
5   -0.158277 
6   -0.156505 
7   -0.168859 
8   -0.164387 
9   -0.06136 
10   -0.011583 
11   0.160717 
12   -0.264322 
13   -0.20555 
14   -0.375215 
15   -0.205865 
16   0.158349 
17   0.159398 
18   0.162879 
19   0.156722 
20   0.145095 
21   0.157911 
22   0.153499 
23   0.157873 
24   0.154195 
25   0.155716 
26   0.155494 
27   0.148984 
28   0.15642 
29   0.15066 
30   0.246785 
31   0.372851 
 
$$$$ 
 
