PCCDB-ID:  19503 
public computational chemistry database (PCCDB) project, http://pccdb.org 
 
 27 27  0  0  1  0  0  0  0  0999 V2000 
    2.5401    1.5323    0.0842 C   0  0  0  0  0  0  0  0  0  0  0  0 
    5.2057   -3.4096   -3.8864 C   0  0  0  0  0  0  0  0  0  0  0  0 
    2.5311    0.0002    0.1457 C   0  0  0  0  0  0  0  0  0  0  0  0 
    3.2660   -2.9697   -2.3006 C   0  0  0  0  0  0  0  0  0  0  0  0 
    4.9749   -1.1651   -2.7115 C   0  0  0  0  0  0  0  0  0  0  0  0 
    2.7870   -2.2272   -1.0444 C   0  0  0  0  0  0  0  0  0  0  0  0 
    4.4967   -0.4209   -1.4546 C   0  0  0  0  0  0  0  0  0  0  0  0 
    4.7441   -2.6834   -2.6179 C   0  0  2  0  0  0  0  0  0  0  0  0 
    3.0174   -0.7066   -1.1334 C   0  0  2  0  0  0  0  0  0  0  0  0 
    2.1282    1.9630    1.0041 H   0  0  0  0  0  0  0  0  0  0  0  0 
    1.9333    1.8977   -0.7538 H   0  0  0  0  0  0  0  0  0  0  0  0 
    3.5520    1.9333   -0.0395 H   0  0  0  0  0  0  0  0  0  0  0  0 
    5.0655   -4.4939   -3.7989 H   0  0  0  0  0  0  0  0  0  0  0  0 
    6.2677   -3.2243   -4.0886 H   0  0  0  0  0  0  0  0  0  0  0  0 
    4.6369   -3.0707   -4.7622 H   0  0  0  0  0  0  0  0  0  0  0  0 
    1.5071   -0.3378    0.3597 H   0  0  0  0  0  0  0  0  0  0  0  0 
    3.1439   -0.3367    0.9951 H   0  0  0  0  0  0  0  0  0  0  0  0 
    2.6524   -2.6614   -3.1615 H   0  0  0  0  0  0  0  0  0  0  0  0 
    3.1104   -4.0506   -2.1817 H   0  0  0  0  0  0  0  0  0  0  0  0 
    6.0391   -0.9582   -2.8884 H   0  0  0  0  0  0  0  0  0  0  0  0 
    4.4347   -0.7783   -3.5898 H   0  0  0  0  0  0  0  0  0  0  0  0 
    3.3252   -2.6165   -0.1661 H   0  0  0  0  0  0  0  0  0  0  0  0 
    1.7222   -2.4323   -0.8689 H   0  0  0  0  0  0  0  0  0  0  0  0 
    4.6611    0.6560   -1.5822 H   0  0  0  0  0  0  0  0  0  0  0  0 
    5.1112   -0.7294   -0.5942 H   0  0  0  0  0  0  0  0  0  0  0  0 
    5.3444   -3.0589   -1.7729 H   0  0  0  0  0  0  0  0  0  0  0  0 
    2.4136   -0.3278   -1.9757 H   0  0  0  0  0  0  0  0  0  0  0  0 
  1  3  1  0  0  0  0 
  1 10  1  0  0  0  0 
  2 13  1  0  0  0  0 
  2  8  1  0  0  0  0 
  3 16  1  0  0  0  0 
  3 17  1  0  0  0  0 
  4 19  1  0  0  0  0 
  4  6  1  0  0  0  0 
  5  8  1  0  0  0  0 
  5  7  1  0  0  0  0 
  6 23  1  0  0  0  0 
  6 22  1  0  0  0  0 
  7  9  1  0  0  0  0 
  7 25  1  0  0  0  0 
  8  4  1  0  0  0  0 
  8 26  1  1  0  0  0 
  9 27  1  6  0  0  0 
  9  6  1  0  0  0  0 
  9  3  1  0  0  0  0 
 11  1  1  0  0  0  0 
 12  1  1  0  0  0  0 
 14  2  1  0  0  0  0 
 15  2  1  0  0  0  0 
 18  4  1  0  0  0  0 
 20  5  1  0  0  0  0 
 21  5  1  0  0  0  0 
 24  7  1  0  0  0  0 
M  END 
>  <HBA> 
0 
 
>  <HBD> 
0 
 
>  <TPSA> 
0.0 
 
>  <cid> 
19503 
 
>  <dipole> 
0.05 
 
>  <excitation_energy_1> 
7.3 
 
>  <excitation_energy_2> 
7.432 
 
>  <excitation_energy_3> 
7.536 
 
>  <excitation_energy_4> 
7.629 
 
>  <homo_energy> 
-7.717 
 
>  <homo_lumo_gap> 
10.142 
 
>  <logP> 
3.223 
 
>  <lumo_energy> 
2.425 
 
>  <melting_point> 
-5.98 
 
>  <molecular_refractivity> 
43.26 
 
>  <oscillator_strength_1> 
0.0028 
 
>  <oscillator_strength_2> 
0.0042 
 
>  <oscillator_strength_3> 
0.0218 
 
>  <oscillator_strength_4> 
0.0025 
 
>  <open_babel_can_smiles> 
CC[C@@H]1CC[C@H](CC1)C 
 
>  <mulliken_charges> 
27 
1   -0.44879 
2   -0.444874 
3   -0.249007 
4   -0.256954 
5   -0.257679 
6   -0.264449 
7   -0.26546 
8   -0.066455 
9   -0.065098 
10   0.141144 
11   0.140301 
12   0.146329 
13   0.138292 
14   0.13824 
15   0.137538 
16   0.126933 
17   0.125942 
18   0.122507 
19   0.125431 
20   0.125496 
21   0.122785 
22   0.123172 
23   0.12567 
24   0.130978 
25   0.122219 
26   0.115056 
27   0.110734 
 
>  <lowdin_charges> 
27 
1   -0.447687 
2   -0.440689 
3   -0.272241 
4   -0.276915 
5   -0.276979 
6   -0.277268 
7   -0.278727 
8   -0.126348 
9   -0.129502 
10   0.149972 
11   0.146573 
12   0.146604 
13   0.145289 
14   0.14568 
15   0.145469 
16   0.138891 
17   0.138285 
18   0.136319 
19   0.139221 
20   0.139556 
21   0.136383 
22   0.136568 
23   0.139495 
24   0.141373 
25   0.136254 
26   0.132984 
27   0.131442 
 
$$$$ 
 
