PCCDB-ID:  65057 
public computational chemistry database (PCCDB) project, http://pccdb.org 
 
 26 28  0  0  0  0  0  0  0  0999 V2000 
   -1.7909    2.5082    1.7351 C   0  0  0  0  0  0  0  0  0  0  0  0 
    0.3096   -3.6319   -4.2551 C   0  0  0  0  0  0  0  0  0  0  0  0 
   -0.4226    2.7252    1.9179 C   0  0  0  0  0  0  0  0  0  0  0  0 
   -2.2319    1.5533    0.8139 C   0  0  0  0  0  0  0  0  0  0  0  0 
   -0.6946   -2.9404   -3.5709 C   0  0  0  0  0  0  0  0  0  0  0  0 
    1.6539   -3.3469   -4.0012 C   0  0  0  0  0  0  0  0  0  0  0  0 
    0.5038    1.9898    1.1839 C   0  0  0  0  0  0  0  0  0  0  0  0 
   -1.3095    0.8160    0.0775 C   0  0  0  0  0  0  0  0  0  0  0  0 
   -0.3581   -1.9658   -2.6361 C   0  0  0  0  0  0  0  0  0  0  0  0 
    1.9953   -2.3734   -3.0667 C   0  0  0  0  0  0  0  0  0  0  0  0 
    0.0705    1.0249    0.2544 C   0  0  0  0  0  0  0  0  0  0  0  0 
    0.9919   -1.6705   -2.3727 C   0  0  0  0  0  0  0  0  0  0  0  0 
    1.0739    0.2861   -0.4816 C   0  0  0  0  0  0  0  0  0  0  0  0 
    1.4000   -0.6678   -1.4121 C   0  0  0  0  0  0  0  0  0  0  0  0 
    2.4570    0.0400   -0.7559 C   0  0  0  0  0  0  0  0  0  0  0  0 
    3.6393    0.2630   -0.5703 O   0  0  0  0  0  0  0  0  0  0  0  0 
   -2.5134    3.0822    2.3087 H   0  0  0  0  0  0  0  0  0  0  0  0 
    0.0438   -4.3915   -4.9852 H   0  0  0  0  0  0  0  0  0  0  0  0 
   -0.0794    3.4680    2.6324 H   0  0  0  0  0  0  0  0  0  0  0  0 
   -3.2958    1.3852    0.6716 H   0  0  0  0  0  0  0  0  0  0  0  0 
   -1.7396   -3.1624   -3.7685 H   0  0  0  0  0  0  0  0  0  0  0  0 
    2.4345   -3.8839   -4.5326 H   0  0  0  0  0  0  0  0  0  0  0  0 
    1.5699    2.1486    1.3163 H   0  0  0  0  0  0  0  0  0  0  0  0 
   -1.6540    0.0749   -0.6369 H   0  0  0  0  0  0  0  0  0  0  0  0 
   -1.1391   -1.4292   -2.1069 H   0  0  0  0  0  0  0  0  0  0  0  0 
    3.0361   -2.1419   -2.8601 H   0  0  0  0  0  0  0  0  0  0  0  0 
  1  3  1  0  0  0  0 
  1 17  1  0  0  0  0 
  2  6  2  0  0  0  0 
  2  5  1  0  0  0  0 
  3 19  1  0  0  0  0 
  4  1  2  0  0  0  0 
  5  9  2  0  0  0  0 
  6 10  1  0  0  0  0 
  7 23  1  0  0  0  0 
  7  3  2  0  0  0  0 
  8 11  2  0  0  0  0 
  8  4  1  0  0  0  0 
  9 12  1  0  0  0  0 
  9 25  1  0  0  0  0 
 10 26  1  0  0  0  0 
 10 12  2  0  0  0  0 
 11  7  1  0  0  0  0 
 12 14  1  0  0  0  0 
 13 11  1  0  0  0  0 
 14 15  1  0  0  0  0 
 14 13  2  0  0  0  0 
 15 16  2  0  0  0  0 
 15 13  1  0  0  0  0 
 18  2  1  0  0  0  0 
 20  4  1  0  0  0  0 
 21  5  1  0  0  0  0 
 22  6  1  0  0  0  0 
 24  8  1  0  0  0  0 
M  END 
>  <HBA> 
1 
 
>  <HBD> 
0 
 
>  <TPSA> 
17.07 
 
>  <cid> 
65057 
 
>  <dipole> 
4.99 
 
>  <excitation_energy_1> 
3.01 
 
>  <excitation_energy_2> 
3.979 
 
>  <excitation_energy_3> 
4.314 
 
>  <excitation_energy_4> 
4.527 
 
>  <homo_energy> 
-5.84 
 
>  <homo_lumo_gap> 
3.867 
 
>  <logP> 
3.18 
 
>  <lumo_energy> 
-1.973 
 
>  <melting_point> 
96.13 
 
>  <molecular_refractivity> 
64.7 
 
>  <oscillator_strength_1> 
0.0002 
 
>  <oscillator_strength_2> 
0.72 
 
>  <oscillator_strength_3> 
0.0 
 
>  <oscillator_strength_4> 
0.0098 
 
>  <open_babel_can_smiles> 
O=C1C(=C1c1ccccc1)c1ccccc1 
 
>  <mulliken_charges> 
26 
1   -0.119391 
2   -0.119405 
3   -0.132964 
4   -0.136261 
5   -0.136261 
6   -0.132894 
7   -0.166011 
8   -0.157446 
9   -0.157465 
10   -0.166112 
11   0.095216 
12   0.095155 
13   -0.008756 
14   -0.008554 
15   0.261841 
16   -0.493913 
17   0.140843 
18   0.140836 
19   0.143114 
20   0.13923 
21   0.13921 
22   0.143102 
23   0.171399 
24   0.147047 
25   0.147044 
26   0.171398 
 
>  <lowdin_charges> 
26 
1   -0.141573 
2   -0.139572 
3   -0.152489 
4   -0.152657 
5   -0.153036 
6   -0.154041 
7   -0.130131 
8   -0.14307 
9   -0.144415 
10   -0.130524 
11   -0.014509 
12   -0.013384 
13   -0.005787 
14   -0.007501 
15   0.107001 
16   -0.281814 
17   0.164709 
18   0.163791 
19   0.165306 
20   0.160814 
21   0.161157 
22   0.165873 
23   0.176051 
24   0.16135 
25   0.161933 
26   0.176516 
 
$$$$ 
 
