PCCDB-ID:  56228 
public computational chemistry database (PCCDB) project, http://pccdb.org 
 
 21 21  0  0  0  0  0  0  0  0999 V2000 
   -1.7170   -0.0777   -0.0567 C   0  0  0  0  0  0  0  0  0  0  0  0 
   -1.0837    1.1575    0.1019 C   0  0  0  0  0  0  0  0  0  0  0  0 
   -0.9590   -1.2450   -0.1870 C   0  0  0  0  0  0  0  0  0  0  0  0 
    4.9644    2.7064    0.4010 C   0  0  0  0  0  0  0  0  0  0  0  0 
    0.3071    1.2320    0.1315 C   0  0  0  0  0  0  0  0  0  0  0  0 
    0.4305   -1.1778   -0.1590 C   0  0  0  0  0  0  0  0  0  0  0  0 
    6.4224    2.8355    0.4403 C   0  0  0  0  0  0  0  0  0  0  0  0 
    4.4093    1.4974    0.2328 C   0  0  0  0  0  0  0  0  0  0  0  0 
    1.0697    0.0614    0.0005 C   0  0  0  0  0  0  0  0  0  0  0  0 
    2.5491    0.0670    0.0228 C   0  0  0  0  0  0  0  0  0  0  0  0 
    7.0135    3.8899    0.5877 O   0  0  0  0  0  0  0  0  0  0  0  0 
    3.2653   -0.9009   -0.0870 O   0  0  0  0  0  0  0  0  0  0  0  0 
    3.0551    1.3497    0.1908 O   0  0  0  0  0  0  0  0  0  0  0  0 
   -2.8020   -0.1309   -0.0793 H   0  0  0  0  0  0  0  0  0  0  0  0 
   -1.6742    2.0634    0.2035 H   0  0  0  0  0  0  0  0  0  0  0  0 
   -1.4521   -2.2048   -0.3108 H   0  0  0  0  0  0  0  0  0  0  0  0 
    4.3637    3.6043    0.5104 H   0  0  0  0  0  0  0  0  0  0  0  0 
    0.8032    2.1877    0.2541 H   0  0  0  0  0  0  0  0  0  0  0  0 
    1.0386   -2.0708   -0.2578 H   0  0  0  0  0  0  0  0  0  0  0  0 
    6.9813    1.8794    0.3235 H   0  0  0  0  0  0  0  0  0  0  0  0 
    4.9739    0.5767    0.1195 H   0  0  0  0  0  0  0  0  0  0  0  0 
  1  2  2  0  0  0  0 
  2  5  1  0  0  0  0 
  2 15  1  0  0  0  0 
  3  6  2  0  0  0  0 
  3  1  1  0  0  0  0 
  4  7  1  0  0  0  0 
  4 17  1  0  0  0  0 
  5 18  1  0  0  0  0 
  6  9  1  0  0  0  0 
  7 11  2  0  0  0  0 
  8  4  2  0  0  0  0 
  9 10  1  0  0  0  0 
  9  5  2  0  0  0  0 
 10 13  1  0  0  0  0 
 12 10  2  0  0  0  0 
 13  8  1  0  0  0  0 
 14  1  1  0  0  0  0 
 16  3  1  0  0  0  0 
 19  6  1  0  0  0  0 
 20  7  1  0  0  0  0 
 21  8  1  0  0  0  0 
M  END 
>  <HBA> 
3 
 
>  <HBD> 
0 
 
>  <TPSA> 
43.37 
 
>  <cid> 
56228 
 
>  <dipole> 
5.44 
 
>  <excitation_energy_1> 
3.619 
 
>  <excitation_energy_2> 
4.565 
 
>  <excitation_energy_3> 
4.646 
 
>  <excitation_energy_4> 
4.704 
 
>  <homo_energy> 
-6.819 
 
>  <homo_lumo_gap> 
4.705 
 
>  <logP> 
1.556 
 
>  <lumo_energy> 
-2.114 
 
>  <melting_point> 
69.45 
 
>  <molecular_refractivity> 
47.06 
 
>  <oscillator_strength_1> 
0.0 
 
>  <oscillator_strength_2> 
0.1805 
 
>  <oscillator_strength_3> 
0.3782 
 
>  <oscillator_strength_4> 
0.0001 
 
>  <open_babel_can_smiles> 
O=C/C=C/OC(=O)c1ccccc1 
 
>  <mulliken_charges> 
21 
1   -0.112823 
2   -0.136822 
3   -0.138012 
4   -0.21555 
5   -0.150862 
6   -0.144199 
7   0.236 
8   0.150767 
9   0.029854 
10   0.608728 
11   -0.421017 
12   -0.465111 
13   -0.476938 
14   0.145758 
15   0.14559 
16   0.146242 
17   0.164177 
18   0.163747 
19   0.169253 
20   0.102395 
21   0.198822 
 
>  <lowdin_charges> 
21 
1   -0.128447 
2   -0.153745 
3   -0.15218 
4   -0.220716 
5   -0.134172 
6   -0.125465 
7   0.043694 
8   -0.00433 
9   -0.048739 
10   0.216074 
11   -0.235009 
12   -0.241224 
13   -0.141797 
14   0.163428 
15   0.16606 
16   0.165931 
17   0.178672 
18   0.175304 
19   0.180068 
20   0.11521 
21   0.181381 
 
$$$$ 
 
