PCCDB-ID:  8657 
public computational chemistry database (PCCDB) project, http://pccdb.org 
 
 24 24  0  0  0  0  0  0  0  0999 V2000 
    3.8011    0.2513    0.9589 C   0  0  0  0  0  0  0  0  0  0  0  0 
    2.0654    2.4110   -2.8011 C   0  0  0  0  0  0  0  0  0  0  0  0 
    2.5957    0.0965    0.0131 C   0  0  0  0  0  0  0  0  0  0  0  0 
    3.4079    1.7765   -2.3923 C   0  0  0  0  0  0  0  0  0  0  0  0 
    3.3025   -2.5495   -2.6399 C   0  0  0  0  0  0  0  0  0  0  0  0 
    3.7145   -1.7819   -3.7288 C   0  0  0  0  0  0  0  0  0  0  0  0 
    2.9357   -1.9142   -1.4549 C   0  0  0  0  0  0  0  0  0  0  0  0 
    3.7501   -0.3935   -3.6129 C   0  0  0  0  0  0  0  0  0  0  0  0 
    2.9668   -0.5185   -1.3247 C   0  0  0  0  0  0  0  0  0  0  0  0 
    3.3835    0.2585   -2.4269 C   0  0  0  0  0  0  0  0  0  0  0  0 
    3.4926    0.6752    1.9218 H   0  0  0  0  0  0  0  0  0  0  0  0 
    4.5643    0.9090    0.5277 H   0  0  0  0  0  0  0  0  0  0  0  0 
    4.2734   -0.7188    1.1494 H   0  0  0  0  0  0  0  0  0  0  0  0 
    2.1275    3.5054   -2.7827 H   0  0  0  0  0  0  0  0  0  0  0  0 
    1.2572    2.1060   -2.1269 H   0  0  0  0  0  0  0  0  0  0  0  0 
    1.7819    2.1030   -3.8137 H   0  0  0  0  0  0  0  0  0  0  0  0 
    2.1182    1.0723   -0.1270 H   0  0  0  0  0  0  0  0  0  0  0  0 
    1.8455   -0.5399    0.4991 H   0  0  0  0  0  0  0  0  0  0  0  0 
    3.6912    2.1380   -1.3974 H   0  0  0  0  0  0  0  0  0  0  0  0 
    4.1879    2.1329   -3.0766 H   0  0  0  0  0  0  0  0  0  0  0  0 
    3.2663   -3.6334   -2.7113 H   0  0  0  0  0  0  0  0  0  0  0  0 
    4.0064   -2.2589   -4.6609 H   0  0  0  0  0  0  0  0  0  0  0  0 
    2.6131   -2.5121   -0.6044 H   0  0  0  0  0  0  0  0  0  0  0  0 
    4.0723    0.2066   -4.4619 H   0  0  0  0  0  0  0  0  0  0  0  0 
  1 13  1  0  0  0  0 
  1 11  1  0  0  0  0 
  2 14  1  0  0  0  0 
  2  4  1  0  0  0  0 
  2 15  1  0  0  0  0 
  3 18  1  0  0  0  0 
  3  1  1  0  0  0  0 
  4 19  1  0  0  0  0 
  5  7  2  0  0  0  0 
  6  8  2  0  0  0  0 
  6  5  1  0  0  0  0 
  7  9  1  0  0  0  0 
  7 23  1  0  0  0  0 
  8 10  1  0  0  0  0 
  9  3  1  0  0  0  0 
 10  4  1  0  0  0  0 
 10  9  2  0  0  0  0 
 12  1  1  0  0  0  0 
 16  2  1  0  0  0  0 
 17  3  1  0  0  0  0 
 20  4  1  0  0  0  0 
 21  5  1  0  0  0  0 
 22  6  1  0  0  0  0 
 24  8  1  0  0  0  0 
M  END 
>  <HBA> 
0 
 
>  <HBD> 
0 
 
>  <TPSA> 
0.0 
 
>  <cid> 
8657 
 
>  <dipole> 
0.45 
 
>  <excitation_energy_1> 
5.192 
 
>  <excitation_energy_2> 
5.644 
 
>  <excitation_energy_3> 
5.957 
 
>  <excitation_energy_4> 
6.026 
 
>  <homo_energy> 
-6.251 
 
>  <homo_lumo_gap> 
6.422 
 
>  <logP> 
2.811 
 
>  <lumo_energy> 
0.171 
 
>  <melting_point> 
10.66 
 
>  <molecular_refractivity> 
45.99 
 
>  <oscillator_strength_1> 
0.0008 
 
>  <oscillator_strength_2> 
0.0486 
 
>  <oscillator_strength_3> 
0.006 
 
>  <oscillator_strength_4> 
0.0797 
 
>  <open_babel_can_smiles> 
CCc1ccccc1CC 
 
>  <mulliken_charges> 
24 
1   -0.436533 
2   -0.436719 
3   -0.345926 
4   -0.346356 
5   -0.128581 
6   -0.128601 
7   -0.183246 
8   -0.183854 
9   0.12149 
10   0.122027 
11   0.142288 
12   0.150539 
13   0.150071 
14   0.142353 
15   0.150771 
16   0.150098 
17   0.144806 
18   0.14249 
19   0.144873 
20   0.142413 
21   0.124357 
22   0.124336 
23   0.118449 
24   0.118454 
 
>  <lowdin_charges> 
24 
1   -0.44208 
2   -0.439575 
3   -0.275932 
4   -0.275572 
5   -0.158838 
6   -0.161689 
7   -0.167924 
8   -0.16784 
9   -0.010499 
10   -0.010325 
11   0.148479 
12   0.150408 
13   0.151031 
14   0.146631 
15   0.150125 
16   0.150528 
17   0.148832 
18   0.150597 
19   0.148501 
20   0.1503 
21   0.153357 
22   0.155639 
23   0.152921 
24   0.152925 
 
$$$$ 
 
