PCCDB-ID:  20446 
public computational chemistry database (PCCDB) project, http://pccdb.org 
 
 21 21  0  0  0  0  0  0  0  0999 V2000 
    1.0062   -2.1329    0.6285 C   0  0  0  0  0  0  0  0  0  0  0  0 
    2.4821   -1.9324    0.4531 C   0  0  0  0  0  0  0  0  0  0  0  0 
    7.4011   -0.8358   -0.5899 C   0  0  0  0  0  0  0  0  0  0  0  0 
    6.7423   -2.0660   -0.6365 C   0  0  0  0  0  0  0  0  0  0  0  0 
    6.6577    0.3382   -0.4594 C   0  0  0  0  0  0  0  0  0  0  0  0 
    5.3517   -2.1204   -0.5558 C   0  0  0  0  0  0  0  0  0  0  0  0 
    5.2668    0.2826   -0.3729 C   0  0  0  0  0  0  0  0  0  0  0  0 
    2.3384   -0.0097   -1.1067 C   0  0  0  0  0  0  0  0  0  0  0  0 
    3.1060   -1.0027   -0.3108 C   0  0  0  0  0  0  0  0  0  0  0  0 
    4.5895   -0.9486   -0.4144 C   0  0  0  0  0  0  0  0  0  0  0  0 
    1.1321    0.1619   -1.0529 O   0  0  0  0  0  0  0  0  0  0  0  0 
    0.8032   -3.0944    1.1095 H   0  0  0  0  0  0  0  0  0  0  0  0 
    0.4688   -2.0752   -0.3221 H   0  0  0  0  0  0  0  0  0  0  0  0 
    0.5778   -1.3408    1.2568 H   0  0  0  0  0  0  0  0  0  0  0  0 
    3.1250   -2.6071    1.0179 H   0  0  0  0  0  0  0  0  0  0  0  0 
    8.4846   -0.7923   -0.6587 H   0  0  0  0  0  0  0  0  0  0  0  0 
    7.3112   -2.9852   -0.7486 H   0  0  0  0  0  0  0  0  0  0  0  0 
    7.1608    1.3005   -0.4165 H   0  0  0  0  0  0  0  0  0  0  0  0 
    4.8440   -3.0788   -0.6240 H   0  0  0  0  0  0  0  0  0  0  0  0 
    4.7033    1.2034   -0.2453 H   0  0  0  0  0  0  0  0  0  0  0  0 
    2.9548    0.5959   -1.8047 H   0  0  0  0  0  0  0  0  0  0  0  0 
  1 12  1  0  0  0  0 
  1 14  1  0  0  0  0 
  2  1  1  0  0  0  0 
  2 15  1  0  0  0  0 
  3  5  1  0  0  0  0 
  4  3  2  0  0  0  0 
  4  6  1  0  0  0  0 
  5 18  1  0  0  0  0 
  5  7  2  0  0  0  0 
  6 10  2  0  0  0  0 
  7 20  1  0  0  0  0 
  8 11  2  0  0  0  0 
  8  9  1  0  0  0  0 
  9  2  2  0  0  0  0 
 10  7  1  0  0  0  0 
 10  9  1  0  0  0  0 
 13  1  1  0  0  0  0 
 16  3  1  0  0  0  0 
 17  4  1  0  0  0  0 
 19  6  1  0  0  0  0 
 21  8  1  0  0  0  0 
M  END 
>  <HBA> 
1 
 
>  <HBD> 
0 
 
>  <TPSA> 
17.07 
 
>  <cid> 
20446 
 
>  <dipole> 
2.59 
 
>  <excitation_energy_1> 
3.45 
 
>  <excitation_energy_2> 
4.122 
 
>  <excitation_energy_3> 
4.42 
 
>  <excitation_energy_4> 
5.164 
 
>  <homo_energy> 
-6.411 
 
>  <homo_lumo_gap> 
4.683 
 
>  <logP> 
2.289 
 
>  <lumo_energy> 
-1.728 
 
>  <melting_point> 
49.75 
 
>  <molecular_refractivity> 
46.35 
 
>  <oscillator_strength_1> 
0.0006 
 
>  <oscillator_strength_2> 
0.091 
 
>  <oscillator_strength_3> 
0.0022 
 
>  <oscillator_strength_4> 
0.0046 
 
>  <open_babel_can_smiles> 
C/C=C(/c1ccccc1)\C=O 
 
>  <mulliken_charges> 
21 
1   -0.473404 
2   -0.147114 
3   -0.126511 
4   -0.131991 
5   -0.131822 
6   -0.171445 
7   -0.176493 
8   0.185093 
9   0.0557 
10   0.08013 
11   -0.411841 
12   0.145183 
13   0.189501 
14   0.18411 
15   0.150596 
16   0.132789 
17   0.133197 
18   0.134224 
19   0.131048 
20   0.135034 
21   0.114014 
 
>  <lowdin_charges> 
21 
1   -0.445771 
2   -0.09565 
3   -0.152696 
4   -0.154239 
5   -0.152901 
6   -0.161634 
7   -0.165546 
8   0.037724 
9   -0.070128 
10   -0.005418 
11   -0.229518 
12   0.153406 
13   0.178398 
14   0.178949 
15   0.163746 
16   0.157506 
17   0.159852 
18   0.159895 
19   0.158804 
20   0.159807 
21   0.125415 
 
$$$$ 
 
