PCCDB-ID:  15115 
public computational chemistry database (PCCDB) project, http://pccdb.org 
 
 16 15  0  0  0  0  0  0  0  0999 V2000 
    0.0356    0.3978   -0.7655 C   0  0  0  0  0  0  0  0  0  0  0  0 
    1.2116   -2.7875    4.6185 C   0  0  0  0  0  0  0  0  0  0  0  0 
    2.0257   -0.8969   -0.7504 C   0  0  0  0  0  0  0  0  0  0  0  0 
    2.3250   -1.2687    3.0656 C   0  0  0  0  0  0  0  0  0  0  0  0 
    0.9025   -0.5723   -0.1400 O   0  0  0  0  0  0  0  0  0  0  0  0 
    1.8441   -1.5373    4.2819 O   0  0  0  0  0  0  0  0  0  0  0  0 
    2.6086   -0.3763   -2.1970 S   0  0  0  0  0  0  0  0  0  0  0  0 
    3.0870    0.1416    2.7537 S   0  0  0  0  0  0  0  0  0  0  0  0 
    3.0404   -2.0562    0.1508 S   0  0  0  0  0  0  0  0  0  0  0  0 
    1.9928   -2.6080    1.8621 S   0  0  0  0  0  0  0  0  0  0  0  0 
    0.5642    1.3467   -0.8795 H   0  0  0  0  0  0  0  0  0  0  0  0 
   -0.8072    0.4970   -0.0823 H   0  0  0  0  0  0  0  0  0  0  0  0 
   -0.2881    0.0344   -1.7435 H   0  0  0  0  0  0  0  0  0  0  0  0 
    0.9643   -2.6960    5.6761 H   0  0  0  0  0  0  0  0  0  0  0  0 
    1.8973   -3.6262    4.4667 H   0  0  0  0  0  0  0  0  0  0  0  0 
    0.2967   -2.9337    4.0358 H   0  0  0  0  0  0  0  0  0  0  0  0 
  1  5  1  0  0  0  0 
  1 12  1  0  0  0  0 
  2 14  1  0  0  0  0 
  3  5  1  0  0  0  0 
  3  9  1  0  0  0  0 
  4  6  1  0  0  0  0 
  6  2  1  0  0  0  0 
  7  3  2  0  0  0  0 
  8  4  2  0  0  0  0 
  9 10  1  0  0  0  0 
 10  4  1  0  0  0  0 
 11  1  1  0  0  0  0 
 13  1  1  0  0  0  0 
 15  2  1  0  0  0  0 
 16  2  1  0  0  0  0 
M  END 
>  <HBA> 
6 
 
>  <HBD> 
0 
 
>  <TPSA> 
133.24 
 
>  <cid> 
15115 
 
>  <dipole> 
4.99 
 
>  <excitation_energy_1> 
3.305 
 
>  <excitation_energy_2> 
3.615 
 
>  <excitation_energy_3> 
3.831 
 
>  <excitation_energy_4> 
3.938 
 
>  <homo_energy> 
-6.299 
 
>  <homo_lumo_gap> 
4.588 
 
>  <logP> 
2.23 
 
>  <lumo_energy> 
-1.712 
 
>  <melting_point> 
35.53 
 
>  <molecular_refractivity> 
54.28 
 
>  <oscillator_strength_1> 
0.0 
 
>  <oscillator_strength_2> 
0.0001 
 
>  <oscillator_strength_3> 
0.0004 
 
>  <oscillator_strength_4> 
0.0012 
 
>  <open_babel_can_smiles> 
COC(=S)SSC(=S)OC 
 
>  <mulliken_charges> 
16 
1   -0.2294 
2   -0.253853 
3   0.061871 
4   0.052769 
5   -0.362405 
6   -0.370662 
7   -0.132582 
8   -0.119312 
9   0.150207 
10   0.053292 
11   0.197842 
12   0.182671 
13   0.191531 
14   0.194685 
15   0.193401 
16   0.189944 
 
>  <lowdin_charges> 
16 
1   -0.270751 
2   -0.283313 
3   -0.121063 
4   -0.119282 
5   -0.135516 
6   -0.148314 
7   -0.10143 
8   -0.09054 
9   0.177051 
10   0.061633 
11   0.175338 
12   0.171143 
13   0.171625 
14   0.175471 
15   0.170519 
16   0.167431 
 
$$$$ 
 
