PCCDB-ID:  57298 
public computational chemistry database (PCCDB) project, http://pccdb.org 
 
 34 35  0  0  1  0  0  0  0  0999 V2000 
    2.3467   -3.8809   -2.8999 C   0  0  0  0  0  0  0  0  0  0  0  0 
    2.2750   -1.4740   -2.6548 C   0  0  0  0  0  0  0  0  0  0  0  0 
    5.3540   -1.2297    4.3015 C   0  0  0  0  0  0  0  0  0  0  0  0 
    4.7494   -0.1058    3.3986 C   0  0  0  0  0  0  0  0  0  0  0  0 
    6.8131   -0.8740    2.4374 C   0  0  0  0  0  0  0  0  0  0  0  0 
    5.3537   -2.7708    2.3243 C   0  0  0  0  0  0  0  0  0  0  0  0 
    3.2223   -2.8290   -0.8800 C   0  0  0  0  0  0  0  0  0  0  0  0 
    6.2593   -2.0134    3.3231 C   0  0  2  0  0  0  0  0  0  0  0  0 
    5.4181   -0.3563    2.0283 C   0  0  1  0  0  0  0  0  0  0  0  0 
    4.8095   -1.6334    1.3821 C   0  0  2  0  0  0  0  0  0  0  0  0 
    2.7062   -2.0854    0.3619 C   0  0  0  0  0  0  0  0  0  0  0  0 
    3.3643   -1.5944    1.3268 N   0  0  0  0  0  0  0  0  0  0  0  0 
    2.2342   -2.7649   -1.9636 N   0  0  0  0  0  0  0  0  0  0  0  0 
    1.3517   -2.0282    0.3979 O   0  0  0  0  0  0  0  0  0  0  0  0 
    1.5429   -3.8149   -3.6402 H   0  0  0  0  0  0  0  0  0  0  0  0 
    2.2395   -4.8279   -2.3617 H   0  0  0  0  0  0  0  0  0  0  0  0 
    3.3103   -3.8941   -3.4402 H   0  0  0  0  0  0  0  0  0  0  0  0 
    1.4614   -1.4245   -3.3853 H   0  0  0  0  0  0  0  0  0  0  0  0 
    3.2304   -1.3099   -3.1844 H   0  0  0  0  0  0  0  0  0  0  0  0 
    2.1353   -0.6649   -1.9320 H   0  0  0  0  0  0  0  0  0  0  0  0 
    4.5854   -1.8686    4.7503 H   0  0  0  0  0  0  0  0  0  0  0  0 
    5.9473   -0.8069    5.1212 H   0  0  0  0  0  0  0  0  0  0  0  0 
    5.0089    0.8900    3.7756 H   0  0  0  0  0  0  0  0  0  0  0  0 
    3.6622   -0.1681    3.3191 H   0  0  0  0  0  0  0  0  0  0  0  0 
    7.4140   -1.2330    1.5922 H   0  0  0  0  0  0  0  0  0  0  0  0 
    7.4003   -0.1353    2.9959 H   0  0  0  0  0  0  0  0  0  0  0  0 
    5.9197   -3.5148    1.7507 H   0  0  0  0  0  0  0  0  0  0  0  0 
    4.5279   -3.2897    2.8224 H   0  0  0  0  0  0  0  0  0  0  0  0 
    3.3611   -3.8818   -0.6047 H   0  0  0  0  0  0  0  0  0  0  0  0 
    4.2066   -2.4456   -1.1875 H   0  0  0  0  0  0  0  0  0  0  0  0 
    7.0018   -2.6498    3.8150 H   0  0  0  0  0  0  0  0  0  0  0  0 
    5.3955    0.5091    1.3585 H   0  0  0  0  0  0  0  0  0  0  0  0 
    5.2692   -1.7507    0.3876 H   0  0  0  0  0  0  0  0  0  0  0  0 
    1.0617   -2.4159   -0.4600 H   0  0  0  0  0  0  0  0  0  0  0  0 
  1 16  1  0  0  0  0 
  1 13  1  0  0  0  0 
  2 13  1  0  0  0  0 
  2 20  1  0  0  0  0 
  3 21  1  0  0  0  0 
  3 22  1  0  0  0  0 
  4 23  1  0  0  0  0 
  4  3  1  0  0  0  0 
  5 26  1  0  0  0  0 
  5  8  1  0  0  0  0 
  6 28  1  0  0  0  0 
  6  8  1  0  0  0  0 
  7 29  1  0  0  0  0 
  7 11  1  0  0  0  0 
  8 31  1  1  0  0  0 
  8  3  1  0  0  0  0 
  9 32  1  6  0  0  0 
  9  5  1  0  0  0  0 
  9  4  1  0  0  0  0 
 10 33  1  6  0  0  0 
 10  9  1  0  0  0  0 
 10  6  1  0  0  0  0 
 11 14  1  0  0  0  0 
 11 12  2  0  0  0  0 
 12 10  1  0  0  0  0 
 13  7  1  0  0  0  0 
 15  1  1  0  0  0  0 
 17  1  1  0  0  0  0 
 18  2  1  0  0  0  0 
 19  2  1  0  0  0  0 
 24  4  1  0  0  0  0 
 25  5  1  0  0  0  0 
 27  6  1  0  0  0  0 
 30  7  1  0  0  0  0 
 34 14  1  0  0  0  0 
M  END 
>  <HBA> 
3 
 
>  <HBD> 
1 
 
>  <TPSA> 
32.34 
 
>  <cid> 
57298 
 
>  <dipole> 
4.61 
 
>  <excitation_energy_1> 
5.309 
 
>  <excitation_energy_2> 
5.641 
 
>  <excitation_energy_3> 
5.67 
 
>  <excitation_energy_4> 
5.905 
 
>  <homo_energy> 
-6.131 
 
>  <homo_lumo_gap> 
6.942 
 
>  <logP> 
1.244 
 
>  <lumo_energy> 
0.811 
 
>  <melting_point> 
66.48 
 
>  <molecular_refractivity> 
56.66 
 
>  <oscillator_strength_1> 
0.002 
 
>  <oscillator_strength_2> 
0.006 
 
>  <oscillator_strength_3> 
0.012 
 
>  <oscillator_strength_4> 
0.007 
 
>  <open_babel_can_smiles> 
CN(C/C(=N\[C@@H]1C[C@H]2C[C@@H]1CC2)/O)C 
 
>  <mulliken_charges> 
34 
1   -0.298192 
2   -0.311364 
3   -0.270109 
4   -0.270908 
5   -0.274194 
6   -0.279761 
7   -0.216973 
8   -0.09773 
9   -0.103852 
10   0.024373 
11   0.481869 
12   -0.431664 
13   -0.424348 
14   -0.599396 
15   0.158989 
16   0.159827 
17   0.13411 
18   0.160043 
19   0.136285 
20   0.177225 
21   0.134588 
22   0.126683 
23   0.123922 
24   0.170993 
25   0.121659 
26   0.129896 
27   0.122934 
28   0.144569 
29   0.174706 
30   0.155884 
31   0.109952 
32   0.109552 
33   0.102395 
34   0.41804 
 
>  <lowdin_charges> 
34 
1   -0.356374 
2   -0.363261 
3   -0.286364 
4   -0.287459 
5   -0.289707 
6   -0.294062 
7   -0.237934 
8   -0.134256 
9   -0.137931 
10   -0.068909 
11   0.111555 
12   -0.205054 
13   -0.187209 
14   -0.376633 
15   0.156303 
16   0.155258 
17   0.131102 
18   0.156721 
19   0.132509 
20   0.164457 
21   0.14485 
22   0.140726 
23   0.139477 
24   0.160151 
25   0.138349 
26   0.143934 
27   0.140609 
28   0.150188 
29   0.166206 
30   0.147271 
31   0.138801 
32   0.138579 
33   0.118754 
34   0.349354 
 
$$$$ 
 
