PCCDB-ID:  7990 
public computational chemistry database (PCCDB) project, http://pccdb.org 
 
 17 16  0  0  1  0  0  0  0  0999 V2000 
    0.9687    0.2303    0.0647 C   0  0  0  0  0  0  0  0  0  0  0  0 
    5.1804   -2.4272   -3.1440 C   0  0  0  0  0  0  0  0  0  0  0  0 
    2.4988    0.0679    0.1258 C   0  0  0  0  0  0  0  0  0  0  0  0 
    3.0037   -0.9743   -0.7713 C   0  0  0  0  0  0  0  0  0  0  0  0 
    3.3855   -1.8397   -1.5273 C   0  0  0  0  0  0  0  0  0  0  0  0 
    3.9130   -2.8920   -2.4121 C   0  0  2  0  0  0  0  0  0  0  0  0 
    4.1414   -4.1160   -1.7059 O   0  0  0  0  0  0  0  0  0  0  0  0 
    0.6401    1.0111    0.7593 H   0  0  0  0  0  0  0  0  0  0  0  0 
    0.4671   -0.7044    0.3345 H   0  0  0  0  0  0  0  0  0  0  0  0 
    0.6453    0.5079   -0.9434 H   0  0  0  0  0  0  0  0  0  0  0  0 
    4.9812   -1.5410   -3.7559 H   0  0  0  0  0  0  0  0  0  0  0  0 
    5.5473   -3.2315   -3.7891 H   0  0  0  0  0  0  0  0  0  0  0  0 
    5.9645   -2.1693   -2.4224 H   0  0  0  0  0  0  0  0  0  0  0  0 
    2.8012   -0.1649    1.1561 H   0  0  0  0  0  0  0  0  0  0  0  0 
    2.9798    1.0244   -0.1218 H   0  0  0  0  0  0  0  0  0  0  0  0 
    3.1501   -3.1528   -3.1556 H   0  0  0  0  0  0  0  0  0  0  0  0 
    4.7192   -3.9043   -0.9548 H   0  0  0  0  0  0  0  0  0  0  0  0 
  1  3  1  0  0  0  0 
  1  9  1  0  0  0  0 
  1  8  1  0  0  0  0 
  2 13  1  0  0  0  0 
  2  6  1  0  0  0  0 
  3 14  1  0  0  0  0 
  4  3  1  0  0  0  0 
  5  4  3  0  0  0  0 
  6 16  1  6  0  0  0 
  6  7  1  0  0  0  0 
  6  5  1  0  0  0  0 
  7 17  1  0  0  0  0 
 10  1  1  0  0  0  0 
 11  2  1  0  0  0  0 
 12  2  1  0  0  0  0 
 15  3  1  0  0  0  0 
M  END 
>  <HBA> 
1 
 
>  <HBD> 
1 
 
>  <TPSA> 
20.23 
 
>  <cid> 
7990 
 
>  <dipole> 
1.97 
 
>  <excitation_energy_1> 
6.023 
 
>  <excitation_energy_2> 
6.222 
 
>  <excitation_energy_3> 
6.4 
 
>  <excitation_energy_4> 
6.641 
 
>  <homo_energy> 
-6.773 
 
>  <homo_lumo_gap> 
7.861 
 
>  <logP> 
0.781 
 
>  <lumo_energy> 
1.088 
 
>  <melting_point> 
9.4 
 
>  <molecular_refractivity> 
30.28 
 
>  <oscillator_strength_1> 
0.0163 
 
>  <oscillator_strength_2> 
0.0315 
 
>  <oscillator_strength_3> 
0.0355 
 
>  <oscillator_strength_4> 
0.0351 
 
>  <open_babel_can_smiles> 
CCC#C[C@H](O)C 
 
>  <mulliken_charges> 
17 
1   -0.434596 
2   -0.443105 
3   -0.390981 
4   0.027376 
5   0.035548 
6   0.005891 
7   -0.607302 
8   0.146753 
9   0.160658 
10   0.158134 
11   0.151852 
12   0.158979 
13   0.142544 
14   0.168541 
15   0.168196 
16   0.165251 
17   0.386264 
 
>  <lowdin_charges> 
17 
1   -0.436008 
2   -0.452541 
3   -0.257349 
4   -0.072995 
5   -0.110102 
6   0.015962 
7   -0.454935 
8   0.152358 
9   0.157587 
10   0.155493 
11   0.158637 
12   0.159411 
13   0.151378 
14   0.164264 
15   0.164178 
16   0.162045 
17   0.342616 
 
$$$$ 
 
