PCCDB-ID:  22802 
public computational chemistry database (PCCDB) project, http://pccdb.org 
 
 36 38  0  0  1  0  0  0  0  0999 V2000 
   -1.2658   -0.3079    0.6733 C   0  0  0  0  0  0  0  0  0  0  0  0 
    0.0792   -1.0190    0.3664 C   0  0  0  0  0  0  0  0  0  0  0  0 
   -1.0414    2.9974   -4.5842 C   0  0  0  0  0  0  0  0  0  0  0  0 
   -0.6116    4.3492   -3.9816 C   0  0  0  0  0  0  0  0  0  0  0  0 
   -1.8642    2.1309   -3.6061 C   0  0  0  0  0  0  0  0  0  0  0  0 
    1.2306    3.4461   -2.3526 C   0  0  0  0  0  0  0  0  0  0  0  0 
    1.0946    1.9252   -2.5622 C   0  0  0  0  0  0  0  0  0  0  0  0 
   -0.8927    1.1906    0.6073 C   0  0  0  0  0  0  0  0  0  0  0  0 
    1.0465    0.1464   -0.0074 C   0  0  0  0  0  0  0  0  0  0  0  0 
   -0.0854    4.2488   -2.5240 C   0  0  2  0  0  0  0  0  0  0  0  0 
   -1.4043    2.1417   -2.1165 C   0  0  1  0  0  0  0  0  0  0  0  0 
   -0.1200    1.3226   -1.8179 C   0  0  2  0  0  0  0  0  0  0  0  0 
   -1.1811    3.5897   -1.7034 C   0  0  0  0  0  0  0  0  0  0  0  0 
    0.2078    1.3077   -0.3673 N   0  0  0  0  0  0  0  0  0  0  0  0 
   -1.8435    4.1616   -0.8567 O   0  0  0  0  0  0  0  0  0  0  0  0 
   -1.6864   -0.5884    1.6447 H   0  0  0  0  0  0  0  0  0  0  0  0 
   -2.0177   -0.5518   -0.0867 H   0  0  0  0  0  0  0  0  0  0  0  0 
   -0.0273   -1.7288   -0.4609 H   0  0  0  0  0  0  0  0  0  0  0  0 
    0.4571   -1.5850    1.2243 H   0  0  0  0  0  0  0  0  0  0  0  0 
   -0.1612    2.4510   -4.9340 H   0  0  0  0  0  0  0  0  0  0  0  0 
   -1.6471    3.1804   -5.4809 H   0  0  0  0  0  0  0  0  0  0  0  0 
   -1.4716    5.0326   -3.9756 H   0  0  0  0  0  0  0  0  0  0  0  0 
    0.1528    4.8186   -4.6146 H   0  0  0  0  0  0  0  0  0  0  0  0 
   -1.9108    1.0943   -3.9655 H   0  0  0  0  0  0  0  0  0  0  0  0 
   -2.8983    2.4998   -3.6066 H   0  0  0  0  0  0  0  0  0  0  0  0 
    1.9947    3.8503   -3.0299 H   0  0  0  0  0  0  0  0  0  0  0  0 
    1.5870    3.6156   -1.3306 H   0  0  0  0  0  0  0  0  0  0  0  0 
    2.0114    1.4437   -2.2044 H   0  0  0  0  0  0  0  0  0  0  0  0 
    1.0274    1.6759   -3.6243 H   0  0  0  0  0  0  0  0  0  0  0  0 
   -0.4826    1.5043    1.5771 H   0  0  0  0  0  0  0  0  0  0  0  0 
   -1.7187    1.8660    0.3893 H   0  0  0  0  0  0  0  0  0  0  0  0 
    1.7335   -0.1140   -0.8160 H   0  0  0  0  0  0  0  0  0  0  0  0 
    1.6569    0.4202    0.8624 H   0  0  0  0  0  0  0  0  0  0  0  0 
    0.0621    5.2631   -2.1372 H   0  0  0  0  0  0  0  0  0  0  0  0 
   -2.2348    1.7374   -1.5327 H   0  0  0  0  0  0  0  0  0  0  0  0 
   -0.2958    0.2992   -2.2008 H   0  0  0  0  0  0  0  0  0  0  0  0 
  1 16  1  0  0  0  0 
  2  1  1  0  0  0  0 
  2 19  1  0  0  0  0 
  3  4  1  0  0  0  0 
  3  5  1  0  0  0  0 
  4 22  1  0  0  0  0 
  4 10  1  0  0  0  0 
  5 11  1  0  0  0  0 
  6 27  1  0  0  0  0 
  7  6  1  0  0  0  0 
  7 28  1  0  0  0  0 
  7 12  1  0  0  0  0 
  8  1  1  0  0  0  0 
  8 30  1  0  0  0  0 
  9  2  1  0  0  0  0 
  9 33  1  0  0  0  0 
 10  6  1  0  0  0  0 
 10 34  1  1  0  0  0 
 10 13  1  0  0  0  0 
 11 12  1  0  0  0  0 
 11 13  1  0  0  0  0 
 11 35  1  1  0  0  0 
 12 36  1  6  0  0  0 
 12 14  1  0  0  0  0 
 13 15  2  0  0  0  0 
 14  9  1  0  0  0  0 
 14  8  1  0  0  0  0 
 17  1  1  0  0  0  0 
 18  2  1  0  0  0  0 
 20  3  1  0  0  0  0 
 21  3  1  0  0  0  0 
 23  4  1  0  0  0  0 
 24  5  1  0  0  0  0 
 25  5  1  0  0  0  0 
 26  6  1  0  0  0  0 
 29  7  1  0  0  0  0 
 31  8  1  0  0  0  0 
 32  9  1  0  0  0  0 
M  END 
>  <HBA> 
2 
 
>  <HBD> 
0 
 
>  <TPSA> 
20.31 
 
>  <cid> 
22802 
 
>  <dipole> 
3.16 
 
>  <excitation_energy_1> 
4.188 
 
>  <excitation_energy_2> 
4.622 
 
>  <excitation_energy_3> 
5.027 
 
>  <excitation_energy_4> 
5.451 
 
>  <homo_energy> 
-5.671 
 
>  <homo_lumo_gap> 
5.535 
 
>  <logP> 
2.168 
 
>  <lumo_energy> 
-0.136 
 
>  <melting_point> 
60.55 
 
>  <molecular_refractivity> 
65.27 
 
>  <oscillator_strength_1> 
0.0005 
 
>  <oscillator_strength_2> 
0.0105 
 
>  <oscillator_strength_3> 
0.0258 
 
>  <oscillator_strength_4> 
0.0047 
 
>  <open_babel_can_smiles> 
O=C1[C@@H]2CCC[C@H]1[C@@H](CC2)N1CCCC1 
 
>  <mulliken_charges> 
36 
1   -0.28267 
2   -0.286548 
3   -0.271973 
4   -0.283322 
5   -0.286294 
6   -0.274104 
7   -0.271449 
8   -0.163105 
9   -0.148449 
10   -0.15723 
11   -0.196057 
12   0.03959 
13   0.470356 
14   -0.401435 
15   -0.471231 
16   0.138472 
17   0.136441 
18   0.138603 
19   0.139153 
20   0.146124 
21   0.139816 
22   0.147448 
23   0.139606 
24   0.139846 
25   0.150051 
26   0.131623 
27   0.162374 
28   0.140743 
29   0.134211 
30   0.142375 
31   0.173472 
32   0.139164 
33   0.144907 
34   0.143245 
35   0.150049 
36   0.106199 
 
>  <lowdin_charges> 
36 
1   -0.301663 
2   -0.304441 
3   -0.286806 
4   -0.27743 
5   -0.27344 
6   -0.277199 
7   -0.287467 
8   -0.217689 
9   -0.212717 
10   -0.156199 
11   -0.167909 
12   -0.058519 
13   0.160163 
14   -0.197566 
15   -0.241538 
16   0.148219 
17   0.142188 
18   0.14489 
19   0.148741 
20   0.144472 
21   0.149855 
22   0.149019 
23   0.149198 
24   0.14695 
25   0.150679 
26   0.145792 
27   0.157182 
28   0.150463 
29   0.140379 
30   0.143762 
31   0.163438 
32   0.146784 
33   0.144081 
34   0.155383 
35   0.158891 
36   0.120055 
 
$$$$ 
 
