PCCDB-ID:  70537 
public computational chemistry database (PCCDB) project, http://pccdb.org 
 
 22 23  0  0  0  0  0  0  0  0999 V2000 
    1.0566    0.1167   -0.1565 C   0  0  0  0  0  0  0  0  0  0  0  0 
    5.3036   -2.3110   -0.1469 C   0  0  0  0  0  0  0  0  0  0  0  0 
    3.8495    3.3796   -0.0206 C   0  0  0  0  0  0  0  0  0  0  0  0 
    4.5951    1.3147   -0.0651 C   0  0  0  0  0  0  0  0  0  0  0  0 
    3.2173    1.3444   -0.0860 C   0  0  0  0  0  0  0  0  0  0  0  0 
    5.4075    0.1544   -0.0817 C   0  0  0  0  0  0  0  0  0  0  0  0 
    3.2099   -1.0546   -0.1502 C   0  0  0  0  0  0  0  0  0  0  0  0 
    2.7453    2.6133   -0.0592 N   0  0  0  0  0  0  0  0  0  0  0  0 
    2.5187    0.1565   -0.1291 N   0  0  0  0  0  0  0  0  0  0  0  0 
    4.6285   -1.0093   -0.1257 N   0  0  0  0  0  0  0  0  0  0  0  0 
    4.9712    2.6336   -0.0235 N   0  0  0  0  0  0  0  0  0  0  0  0 
    6.6470    0.1764   -0.0604 O   0  0  0  0  0  0  0  0  0  0  0  0 
    2.6225   -2.1240   -0.1890 O   0  0  0  0  0  0  0  0  0  0  0  0 
    6.2799    3.0692    0.0138 O   0  0  0  0  0  0  0  0  0  0  0  0 
    0.6986    1.1459   -0.1379 H   0  0  0  0  0  0  0  0  0  0  0  0 
    0.6796   -0.4307    0.7110 H   0  0  0  0  0  0  0  0  0  0  0  0 
    0.7120   -0.3870   -1.0630 H   0  0  0  0  0  0  0  0  0  0  0  0 
    6.3753   -2.1203   -0.1239 H   0  0  0  0  0  0  0  0  0  0  0  0 
    5.0307   -2.8581   -1.0520 H   0  0  0  0  0  0  0  0  0  0  0  0 
    5.0014   -2.9019    0.7207 H   0  0  0  0  0  0  0  0  0  0  0  0 
    3.8710    4.4586    0.0108 H   0  0  0  0  0  0  0  0  0  0  0  0 
    6.7855    2.2171   -0.0024 H   0  0  0  0  0  0  0  0  0  0  0  0 
  1 15  1  0  0  0  0 
  1  9  1  0  0  0  0 
  1 16  1  0  0  0  0 
  2 10  1  0  0  0  0 
  2 18  1  0  0  0  0 
  2 20  1  0  0  0  0 
  3 21  1  0  0  0  0 
  4 11  1  0  0  0  0 
  5  4  2  0  0  0  0 
  5  8  1  0  0  0  0 
  6  4  1  0  0  0  0 
  6 12  2  0  0  0  0 
  7  9  1  0  0  0  0 
  7 10  1  0  0  0  0 
  8  3  2  0  0  0  0 
  9  5  1  0  0  0  0 
 10  6  1  0  0  0  0 
 11  3  1  0  0  0  0 
 11 14  1  0  0  0  0 
 13  7  2  0  0  0  0 
 17  1  1  0  0  0  0 
 19  2  1  0  0  0  0 
 22 14  1  0  0  0  0 
M  END 
>  <HBA> 
7 
 
>  <HBD> 
1 
 
>  <TPSA> 
82.05 
 
>  <cid> 
70537 
 
>  <dipole> 
1.08 
 
>  <excitation_energy_1> 
4.539 
 
>  <excitation_energy_2> 
5.221 
 
>  <excitation_energy_3> 
5.428 
 
>  <excitation_energy_4> 
5.441 
 
>  <homo_energy> 
-6.174 
 
>  <homo_lumo_gap> 
5.061 
 
>  <logP> 
-1.329 
 
>  <lumo_energy> 
-1.113 
 
>  <melting_point> 
198.11 
 
>  <molecular_refractivity> 
48.32 
 
>  <oscillator_strength_1> 
0.1238 
 
>  <oscillator_strength_2> 
0.0 
 
>  <oscillator_strength_3> 
0.0035 
 
>  <oscillator_strength_4> 
0.0285 
 
>  <open_babel_can_smiles> 
On1cnc2c1c(=O)n(C)c(=O)n2C 
 
>  <mulliken_charges> 
22 
1   -0.322819 
2   -0.317348 
3   0.229654 
4   0.208161 
5   0.493507 
6   0.676132 
7   0.788465 
8   -0.521371 
9   -0.595453 
10   -0.574877 
11   -0.237631 
12   -0.567407 
13   -0.51699 
14   -0.523601 
15   0.199946 
16   0.185139 
17   0.185191 
18   0.199919 
19   0.183969 
20   0.183844 
21   0.192228 
22   0.451341 
 
>  <lowdin_charges> 
22 
1   -0.339872 
2   -0.346851 
3   -0.058561 
4   -0.096852 
5   0.067061 
6   0.157733 
7   0.195525 
8   -0.206186 
9   -0.056012 
10   -0.081811 
11   0.131863 
12   -0.328894 
13   -0.299609 
14   -0.341037 
15   0.180948 
16   0.170965 
17   0.170712 
18   0.180645 
19   0.170366 
20   0.170522 
21   0.186517 
22   0.372827 
 
$$$$ 
 
