PCCDB-ID:  61132 
public computational chemistry database (PCCDB) project, http://pccdb.org 
 
 16 16  0  0  0  0  0  0  0  0999 V2000 
   -1.5838   -0.2520    0.0196 C   0  0  0  0  0  0  0  0  0  0  0  0 
   -1.0494    1.0384   -0.0062 C   0  0  0  0  0  0  0  0  0  0  0  0 
   -0.7362   -1.3638    0.0060 C   0  0  0  0  0  0  0  0  0  0  0  0 
    0.3313    1.2224   -0.0464 C   0  0  0  0  0  0  0  0  0  0  0  0 
    0.6432   -1.1857   -0.0323 C   0  0  0  0  0  0  0  0  0  0  0  0 
    1.1840    0.1088   -0.0595 C   0  0  0  0  0  0  0  0  0  0  0  0 
    2.6618    0.2359   -0.0995 C   0  0  0  0  0  0  0  0  0  0  0  0 
    5.4362    2.0021   -0.1981 N   0  0  0  0  0  0  0  0  0  0  0  0 
    3.0944    1.6064   -0.1345 N   0  0  0  0  0  0  0  0  0  0  0  0 
    4.3303    1.7571   -0.1669 N   0  0  0  0  0  0  0  0  0  0  0  0 
    3.4387   -0.6989   -0.1031 O   0  0  0  0  0  0  0  0  0  0  0  0 
   -2.6611   -0.3917    0.0503 H   0  0  0  0  0  0  0  0  0  0  0  0 
   -1.7088    1.9015    0.0048 H   0  0  0  0  0  0  0  0  0  0  0  0 
   -1.1524   -2.3670    0.0257 H   0  0  0  0  0  0  0  0  0  0  0  0 
    0.7530    2.2213   -0.0672 H   0  0  0  0  0  0  0  0  0  0  0  0 
    1.3209   -2.0330   -0.0418 H   0  0  0  0  0  0  0  0  0  0  0  0 
  1 12  1  0  0  0  0 
  2 13  1  0  0  0  0 
  2  1  2  0  0  0  0 
  3  1  1  0  0  0  0 
  3 14  1  0  0  0  0 
  4  2  1  0  0  0  0 
  5  3  2  0  0  0  0 
  6  4  2  0  0  0  0 
  6  5  1  0  0  0  0 
  7  6  1  0  0  0  0 
  8 10  2  0  0  0  0 
  9  7  1  0  0  0  0 
 10  9  2  0  0  0  0 
 11  7  2  0  0  0  0 
 15  4  1  0  0  0  0 
 16  5  1  0  0  0  0 
M  RAD  1   8   2 
M  END 
>  <HBA> 
2 
 
>  <HBD> 
0 
 
>  <TPSA> 
66.82 
 
>  <cid> 
61132 
 
>  <dipole> 
3.13 
 
>  <excitation_energy_1> 
4.178 
 
>  <excitation_energy_2> 
4.497 
 
>  <excitation_energy_3> 
4.778 
 
>  <excitation_energy_4> 
4.819 
 
>  <homo_energy> 
-7.244 
 
>  <homo_lumo_gap> 
5.244 
 
>  <logP> 
1.59 
 
>  <lumo_energy> 
-2.0 
 
>  <melting_point> 
85.8 
 
>  <molecular_refractivity> 
36.65 
 
>  <oscillator_strength_1> 
0.0001 
 
>  <oscillator_strength_2> 
0.016 
 
>  <oscillator_strength_3> 
0.2833 
 
>  <oscillator_strength_4> 
0.0003 
 
>  <open_babel_can_smiles> 
O=C(c1ccccc1)N=[N]=[N] 
 
>  <mulliken_charges> 
16 
1   -0.113574 
2   -0.138683 
3   -0.139453 
4   -0.154201 
5   -0.14958 
6   0.059729 
7   0.541689 
8   -0.213966 
9   -0.478876 
10   0.491107 
11   -0.467112 
12   0.141865 
13   0.141654 
14   0.142946 
15   0.168528 
16   0.167925 
 
>  <lowdin_charges> 
16 
1   -0.131731 
2   -0.156069 
3   -0.152978 
4   -0.136219 
5   -0.127202 
6   -0.044823 
7   0.176739 
8   -0.035275 
9   -0.203954 
10   0.218702 
11   -0.252654 
12   0.161715 
13   0.164359 
14   0.16365 
15   0.176044 
16   0.179695 
 
$$$$ 
 
