PCCDB-ID:  8121 
public computational chemistry database (PCCDB) project, http://pccdb.org 
 
 20 19  0  0  0  0  0  0  0  0999 V2000 
    2.0808   -2.2737    0.6024 C   0  0  0  0  0  0  0  0  0  0  0  0 
    2.7208    2.6342   -3.5264 C   0  0  0  0  0  0  0  0  0  0  0  0 
    4.7711   -0.0655   -0.6613 C   0  0  0  0  0  0  0  0  0  0  0  0 
    4.7872   -0.1280   -2.1802 C   0  0  0  0  0  0  0  0  0  0  0  0 
    3.4150   -1.9032    0.0004 C   0  0  0  0  0  0  0  0  0  0  0  0 
    3.9169    1.9684   -2.8893 C   0  0  0  0  0  0  0  0  0  0  0  0 
    4.2750   -2.6847   -0.3439 O   0  0  0  0  0  0  0  0  0  0  0  0 
    4.9285    2.5305   -2.5293 O   0  0  0  0  0  0  0  0  0  0  0  0 
    3.5345   -0.5567   -0.1069 O   0  0  0  0  0  0  0  0  0  0  0  0 
    3.7131    0.6332   -2.7677 O   0  0  0  0  0  0  0  0  0  0  0  0 
    1.9713   -1.8126    1.5894 H   0  0  0  0  0  0  0  0  0  0  0  0 
    2.0090   -3.3583    0.6877 H   0  0  0  0  0  0  0  0  0  0  0  0 
    1.2684   -1.8941   -0.0260 H   0  0  0  0  0  0  0  0  0  0  0  0 
    2.9175    3.7003   -3.6433 H   0  0  0  0  0  0  0  0  0  0  0  0 
    1.8347    2.4868   -2.8998 H   0  0  0  0  0  0  0  0  0  0  0  0 
    2.5098    2.1815   -4.5005 H   0  0  0  0  0  0  0  0  0  0  0  0 
    4.8470    0.9671   -0.3190 H   0  0  0  0  0  0  0  0  0  0  0  0 
    5.6083   -0.6506   -0.2696 H   0  0  0  0  0  0  0  0  0  0  0  0 
    4.6347   -1.1511   -2.5253 H   0  0  0  0  0  0  0  0  0  0  0  0 
    5.7474    0.2493   -2.5435 H   0  0  0  0  0  0  0  0  0  0  0  0 
  1 12  1  0  0  0  0 
  1 11  1  0  0  0  0 
  2 15  1  0  0  0  0 
  2  6  1  0  0  0  0 
  3 17  1  0  0  0  0 
  3 18  1  0  0  0  0 
  3  9  1  0  0  0  0 
  4  3  1  0  0  0  0 
  5  1  1  0  0  0  0 
  6 10  1  0  0  0  0 
  6  8  2  0  0  0  0 
  7  5  2  0  0  0  0 
  9  5  1  0  0  0  0 
 10  4  1  0  0  0  0 
 13  1  1  0  0  0  0 
 14  2  1  0  0  0  0 
 16  2  1  0  0  0  0 
 19  4  1  0  0  0  0 
 20  4  1  0  0  0  0 
M  END 
>  <HBA> 
4 
 
>  <HBD> 
0 
 
>  <TPSA> 
52.6 
 
>  <cid> 
8121 
 
>  <dipole> 
2.16 
 
>  <excitation_energy_1> 
5.8 
 
>  <excitation_energy_2> 
5.803 
 
>  <excitation_energy_3> 
6.978 
 
>  <excitation_energy_4> 
7.022 
 
>  <homo_energy> 
-7.44 
 
>  <homo_lumo_gap> 
7.641 
 
>  <logP> 
0.113 
 
>  <lumo_energy> 
0.201 
 
>  <melting_point> 
-1.68 
 
>  <molecular_refractivity> 
33.53 
 
>  <oscillator_strength_1> 
0.0014 
 
>  <oscillator_strength_2> 
0.0012 
 
>  <oscillator_strength_3> 
0.0068 
 
>  <oscillator_strength_4> 
0.0386 
 
>  <open_babel_can_smiles> 
CC(=O)OCCOC(=O)C 
 
>  <mulliken_charges> 
20 
1   -0.523201 
2   -0.5232 
3   -0.069965 
4   -0.071148 
5   0.601794 
6   0.601635 
7   -0.4701 
8   -0.46994 
9   -0.445568 
10   -0.445661 
11   0.183723 
12   0.183734 
13   0.184627 
14   0.183714 
15   0.184806 
16   0.183479 
17   0.18272 
18   0.172369 
19   0.183333 
20   0.172852 
 
>  <lowdin_charges> 
20 
1   -0.463412 
2   -0.462634 
3   -0.14385 
4   -0.143853 
5   0.206139 
6   0.204738 
7   -0.268955 
8   -0.26836 
9   -0.197356 
10   -0.196871 
11   0.178563 
12   0.174662 
13   0.180349 
14   0.174941 
15   0.179984 
16   0.178513 
17   0.167783 
18   0.166121 
19   0.168154 
20   0.165347 
 
$$$$ 
 
