PCCDB-ID:  61071 
public computational chemistry database (PCCDB) project, http://pccdb.org 
 
 37 37  0  0  1  0  0  0  0  0999 V2000 
    5.2846   -1.0552    0.2718 C   0  0  0  0  0  0  0  0  0  0  0  0 
   -0.7995   -4.1557   -0.2704 C   0  0  0  0  0  0  0  0  0  0  0  0 
   -2.0014   -3.0624    3.7249 C   0  0  0  0  0  0  0  0  0  0  0  0 
    0.0479   -1.7011    4.1522 C   0  0  0  0  0  0  0  0  0  0  0  0 
    3.9794   -1.6637    0.7825 C   0  0  0  0  0  0  0  0  0  0  0  0 
   -0.2243   -5.5194    3.3543 C   0  0  0  0  0  0  0  0  0  0  0  0 
   -0.4633   -5.3833    1.8744 C   0  0  0  0  0  0  0  0  0  0  0  0 
    1.3942   -1.3609    0.7314 C   0  0  0  0  0  0  0  0  0  0  0  0 
    1.1297   -2.4097    1.5265 C   0  0  0  0  0  0  0  0  0  0  0  0 
    0.2441   -4.2095    4.0055 C   0  0  0  0  0  0  0  0  0  0  0  0 
   -0.5098   -4.2217    1.2081 C   0  0  0  0  0  0  0  0  0  0  0  0 
    2.7419   -0.9034    0.3074 C   0  0  0  0  0  0  0  0  0  0  0  0 
   -0.2552   -2.8820    1.9061 C   0  0  1  0  0  0  0  0  0  0  0  0 
   -0.4857   -2.9643    3.4537 C   0  0  0  0  0  0  0  0  0  0  0  0 
    2.8431    0.0766   -0.4187 O   0  0  0  0  0  0  0  0  0  0  0  0 
    6.1429   -1.6388    0.6213 H   0  0  0  0  0  0  0  0  0  0  0  0 
    5.4001   -0.0249    0.6211 H   0  0  0  0  0  0  0  0  0  0  0  0 
    5.3030   -1.0301   -0.8215 H   0  0  0  0  0  0  0  0  0  0  0  0 
   -0.9268   -5.1546   -0.6995 H   0  0  0  0  0  0  0  0  0  0  0  0 
    0.0063   -3.6487   -0.8163 H   0  0  0  0  0  0  0  0  0  0  0  0 
   -1.7170   -3.5831   -0.4666 H   0  0  0  0  0  0  0  0  0  0  0  0 
   -2.1920   -3.2041    4.7958 H   0  0  0  0  0  0  0  0  0  0  0  0 
   -2.4647   -3.8933    3.1845 H   0  0  0  0  0  0  0  0  0  0  0  0 
   -2.5090   -2.1402    3.4173 H   0  0  0  0  0  0  0  0  0  0  0  0 
   -0.1940   -1.7263    5.2217 H   0  0  0  0  0  0  0  0  0  0  0  0 
   -0.4007   -0.7939    3.7294 H   0  0  0  0  0  0  0  0  0  0  0  0 
    1.1352   -1.6065    4.0584 H   0  0  0  0  0  0  0  0  0  0  0  0 
    3.9693   -1.6945    1.8812 H   0  0  0  0  0  0  0  0  0  0  0  0 
    3.8873   -2.7103    0.4591 H   0  0  0  0  0  0  0  0  0  0  0  0 
    0.5112   -6.3138    3.5433 H   0  0  0  0  0  0  0  0  0  0  0  0 
   -1.1531   -5.8705    3.8310 H   0  0  0  0  0  0  0  0  0  0  0  0 
   -0.6521   -6.3075    1.3273 H   0  0  0  0  0  0  0  0  0  0  0  0 
    0.5847   -0.7515    0.3318 H   0  0  0  0  0  0  0  0  0  0  0  0 
    1.9532   -3.0110    1.9100 H   0  0  0  0  0  0  0  0  0  0  0  0 
    1.3240   -4.0916    3.8427 H   0  0  0  0  0  0  0  0  0  0  0  0 
    0.1056   -4.2609    5.0934 H   0  0  0  0  0  0  0  0  0  0  0  0 
   -0.9695   -2.1489    1.5027 H   0  0  0  0  0  0  0  0  0  0  0  0 
  1 17  1  0  0  0  0 
  1 16  1  0  0  0  0 
  1  5  1  0  0  0  0 
  2 11  1  0  0  0  0 
  3 22  1  0  0  0  0 
  4 25  1  0  0  0  0 
  5 28  1  0  0  0  0 
  6 30  1  0  0  0  0 
  6 31  1  0  0  0  0 
  6 10  1  0  0  0  0 
  7  6  1  0  0  0  0 
  8  9  2  0  0  0  0 
  9 13  1  0  0  0  0 
  9 34  1  0  0  0  0 
 10 36  1  0  0  0  0 
 11  7  2  0  0  0  0 
 11 13  1  0  0  0  0 
 12  8  1  0  0  0  0 
 12  5  1  0  0  0  0 
 13 37  1  6  0  0  0 
 13 14  1  0  0  0  0 
 14  3  1  0  0  0  0 
 14 10  1  0  0  0  0 
 14  4  1  0  0  0  0 
 15 12  2  0  0  0  0 
 18  1  1  0  0  0  0 
 19  2  1  0  0  0  0 
 20  2  1  0  0  0  0 
 21  2  1  0  0  0  0 
 23  3  1  0  0  0  0 
 24  3  1  0  0  0  0 
 26  4  1  0  0  0  0 
 27  4  1  0  0  0  0 
 29  5  1  0  0  0  0 
 32  7  1  0  0  0  0 
 33  8  1  0  0  0  0 
 35 10  1  0  0  0  0 
M  END 
>  <HBA> 
1 
 
>  <HBD> 
0 
 
>  <TPSA> 
17.07 
 
>  <cid> 
61071 
 
>  <dipole> 
3.74 
 
>  <excitation_energy_1> 
3.686 
 
>  <excitation_energy_2> 
4.433 
 
>  <excitation_energy_3> 
5.483 
 
>  <excitation_energy_4> 
5.802 
 
>  <homo_energy> 
-6.406 
 
>  <homo_lumo_gap> 
5.08 
 
>  <logP> 
3.904 
 
>  <lumo_energy> 
-1.325 
 
>  <melting_point> 
53.78 
 
>  <molecular_refractivity> 
66.29 
 
>  <oscillator_strength_1> 
0.0011 
 
>  <oscillator_strength_2> 
0.0525 
 
>  <oscillator_strength_3> 
0.4442 
 
>  <oscillator_strength_4> 
0.0031 
 
>  <open_babel_can_smiles> 
CCC(=O)/C=C/[C@H]1C(=CCCC1(C)C)C 
 
>  <mulliken_charges> 
37 
1   -0.43205 
2   -0.51464 
3   -0.456354 
4   -0.450071 
5   -0.361556 
6   -0.305962 
7   -0.171154 
8   -0.182738 
9   -0.081089 
10   -0.272425 
11   0.172347 
12   0.448137 
13   -0.195591 
14   0.084053 
15   -0.470214 
16   0.135849 
17   0.159976 
18   0.161488 
19   0.152706 
20   0.160829 
21   0.152326 
22   0.140285 
23   0.154451 
24   0.141126 
25   0.140457 
26   0.143925 
27   0.141503 
28   0.156093 
29   0.158889 
30   0.14343 
31   0.14934 
32   0.118024 
33   0.139585 
34   0.14296 
35   0.132499 
36   0.132101 
37   0.131466 
 
>  <lowdin_charges> 
37 
1   -0.436813 
2   -0.442317 
3   -0.445945 
4   -0.439157 
5   -0.305806 
6   -0.278627 
7   -0.188306 
8   -0.208847 
9   -0.115166 
10   -0.272982 
11   -0.016723 
12   0.151443 
13   -0.126478 
14   0.013436 
15   -0.244256 
16   0.148768 
17   0.157414 
18   0.157208 
19   0.155626 
20   0.160511 
21   0.154886 
22   0.147066 
23   0.156579 
24   0.149187 
25   0.147475 
26   0.150888 
27   0.147015 
28   0.156079 
29   0.158466 
30   0.152807 
31   0.150664 
32   0.150501 
33   0.165328 
34   0.158406 
35   0.138297 
36   0.143388 
37   0.149988 
 
$$$$ 
 
