PCCDB-ID:  66775 
public computational chemistry database (PCCDB) project, http://pccdb.org 
 
 14 14  0  0  0  0  0  0  0  0999 V2000 
    0.9088   -0.1491   -0.0187 C   0  0  0  0  0  0  0  0  0  0  0  0 
    4.6442   -0.7086   -0.0098 C   0  0  0  0  0  0  0  0  0  0  0  0 
    4.6547    0.6396   -0.0082 C   0  0  0  0  0  0  0  0  0  0  0  0 
    3.2552   -1.1850   -0.0142 C   0  0  0  0  0  0  0  0  0  0  0  0 
    3.2316    1.1365   -0.0118 C   0  0  0  0  0  0  0  0  0  0  0  0 
    2.4060   -0.1329   -0.0146 C   0  0  0  0  0  0  0  0  0  0  0  0 
    0.5244   -1.1744   -0.0197 H   0  0  0  0  0  0  0  0  0  0  0  0 
    0.4985    0.3628   -0.9004 H   0  0  0  0  0  0  0  0  0  0  0  0 
    0.4937    0.3629    0.8608 H   0  0  0  0  0  0  0  0  0  0  0  0 
    5.5134   -1.3588   -0.0099 H   0  0  0  0  0  0  0  0  0  0  0  0 
    5.5237    1.2875   -0.0026 H   0  0  0  0  0  0  0  0  0  0  0  0 
    2.9655   -2.2317   -0.0146 H   0  0  0  0  0  0  0  0  0  0  0  0 
    3.0159    1.7637   -0.8909 H   0  0  0  0  0  0  0  0  0  0  0  0 
    3.0104    1.7654    0.8646 H   0  0  0  0  0  0  0  0  0  0  0  0 
  1  6  1  0  0  0  0 
  1  9  1  0  0  0  0 
  2  3  2  0  0  0  0 
  3 11  1  0  0  0  0 
  4  2  1  0  0  0  0 
  5  3  1  0  0  0  0 
  5 14  1  0  0  0  0 
  6  4  2  0  0  0  0 
  6  5  1  0  0  0  0 
  7  1  1  0  0  0  0 
  8  1  1  0  0  0  0 
 10  2  1  0  0  0  0 
 12  4  1  0  0  0  0 
 13  5  1  0  0  0  0 
M  END 
>  <HBA> 
0 
 
>  <HBD> 
0 
 
>  <TPSA> 
0.0 
 
>  <cid> 
66775 
 
>  <dipole> 
0.64 
 
>  <excitation_energy_1> 
4.793 
 
>  <excitation_energy_2> 
5.196 
 
>  <excitation_energy_3> 
5.6 
 
>  <excitation_energy_4> 
5.836 
 
>  <homo_energy> 
-5.499 
 
>  <homo_lumo_gap> 
5.312 
 
>  <logP> 
1.893 
 
>  <lumo_energy> 
-0.188 
 
>  <melting_point> 
19.02 
 
>  <molecular_refractivity> 
27.89 
 
>  <oscillator_strength_1> 
0.1222 
 
>  <oscillator_strength_2> 
0.0021 
 
>  <oscillator_strength_3> 
0.0051 
 
>  <oscillator_strength_4> 
0.0036 
 
>  <open_babel_can_smiles> 
CC1=CC=CC1 
 
>  <mulliken_charges> 
14 
1   -0.516506 
2   -0.114887 
3   -0.139004 
4   -0.162681 
5   -0.365365 
6   0.144845 
7   0.156008 
8   0.153402 
9   0.153362 
10   0.122661 
11   0.125364 
12   0.116636 
13   0.163152 
14   0.163013 
 
>  <lowdin_charges> 
14 
1   -0.440094 
2   -0.168414 
3   -0.184589 
4   -0.188818 
5   -0.276037 
6   -0.012223 
7   0.157876 
8   0.156363 
9   0.156354 
10   0.154909 
11   0.156859 
12   0.150479 
13   0.168727 
14   0.168607 
 
$$$$ 
 
