PCCDB-ID:  6558 
public computational chemistry database (PCCDB) project, http://pccdb.org 
 
 16 15  0  0  0  0  0  0  0  0999 V2000 
    1.0790   -0.0535    0.0888 C   0  0  0  0  0  0  0  0  0  0  0  0 
    3.0993   -0.0130   -1.4447 C   0  0  0  0  0  0  0  0  0  0  0  0 
    3.1367    1.2434    0.7643 C   0  0  0  0  0  0  0  0  0  0  0  0 
    2.6104    0.0113    0.0091 C   0  0  0  0  0  0  0  0  0  0  0  0 
    4.6040    1.2553    0.8205 N   0  0  0  0  0  0  0  0  0  0  0  0 
    0.6949   -0.9464   -0.4176 H   0  0  0  0  0  0  0  0  0  0  0  0 
    0.6244    0.8212   -0.3948 H   0  0  0  0  0  0  0  0  0  0  0  0 
    0.7285   -0.0798    1.1279 H   0  0  0  0  0  0  0  0  0  0  0  0 
    2.7965   -0.9389   -1.9483 H   0  0  0  0  0  0  0  0  0  0  0  0 
    4.1885    0.0724   -1.4883 H   0  0  0  0  0  0  0  0  0  0  0  0 
    2.6733    0.8276   -2.0092 H   0  0  0  0  0  0  0  0  0  0  0  0 
    2.6562    1.2803    1.7600 H   0  0  0  0  0  0  0  0  0  0  0  0 
    2.8177    2.1495    0.2308 H   0  0  0  0  0  0  0  0  0  0  0  0 
    3.0117   -0.8802    0.5189 H   0  0  0  0  0  0  0  0  0  0  0  0 
    4.9255    0.5052    1.4321 H   0  0  0  0  0  0  0  0  0  0  0  0 
    4.9266    2.1222    1.2470 H   0  0  0  0  0  0  0  0  0  0  0  0 
  1  8  1  0  0  0  0 
  2  4  1  0  0  0  0 
  3  5  1  0  0  0  0 
  3 12  1  0  0  0  0 
  4  1  1  0  0  0  0 
  4 14  1  0  0  0  0 
  4  3  1  0  0  0  0 
  5 16  1  0  0  0  0 
  5 15  1  0  0  0  0 
  6  1  1  0  0  0  0 
  7  1  1  0  0  0  0 
  9  2  1  0  0  0  0 
 10  2  1  0  0  0  0 
 11  2  1  0  0  0  0 
 13  3  1  0  0  0  0 
M  END 
>  <HBA> 
1 
 
>  <HBD> 
1 
 
>  <TPSA> 
26.02 
 
>  <cid> 
6558 
 
>  <dipole> 
1.42 
 
>  <excitation_energy_1> 
5.572 
 
>  <excitation_energy_2> 
6.39 
 
>  <excitation_energy_3> 
6.462 
 
>  <excitation_energy_4> 
6.792 
 
>  <homo_energy> 
-6.237 
 
>  <homo_lumo_gap> 
8.46 
 
>  <logP> 
1.301 
 
>  <lumo_energy> 
2.223 
 
>  <melting_point> 
29.01 
 
>  <molecular_refractivity> 
24.05 
 
>  <oscillator_strength_1> 
0.0084 
 
>  <oscillator_strength_2> 
0.0217 
 
>  <oscillator_strength_3> 
0.0031 
 
>  <oscillator_strength_4> 
0.0197 
 
>  <open_babel_can_smiles> 
NCC(C)C 
 
>  <mulliken_charges> 
16 
1   -0.4443 
2   -0.436441 
3   -0.128909 
4   -0.064015 
5   -0.716412 
6   0.142065 
7   0.13854 
8   0.136559 
9   0.131363 
10   0.168917 
11   0.130746 
12   0.108311 
13   0.133004 
14   0.113556 
15   0.291163 
16   0.295855 
 
>  <lowdin_charges> 
16 
1   -0.445534 
2   -0.446048 
3   -0.206413 
4   -0.124372 
5   -0.559519 
6   0.150131 
7   0.146004 
8   0.144318 
9   0.143998 
10   0.16022 
11   0.143162 
12   0.115978 
13   0.139364 
14   0.131524 
15   0.251609 
16   0.255579 
 
$$$$ 
 
