PCCDB-ID:  16554 
public computational chemistry database (PCCDB) project, http://pccdb.org 
 
 36 36  0  0  0  0  0  0  0  0999 V2000 
    4.4537    1.0847    1.4546 C   0  0  0  0  0  0  0  0  0  0  0  0 
    2.2490    1.4364    0.4818 C   0  0  0  0  0  0  0  0  0  0  0  0 
   -2.3914   -3.0115    2.1162 C   0  0  0  0  0  0  0  0  0  0  0  0 
   -2.0029   -2.6347    3.5531 C   0  0  0  0  0  0  0  0  0  0  0  0 
   -2.8259   -1.8740    1.1794 C   0  0  0  0  0  0  0  0  0  0  0  0 
   -0.7758   -1.7164    3.7390 C   0  0  0  0  0  0  0  0  0  0  0  0 
   -1.7759   -0.7930    0.8430 C   0  0  0  0  0  0  0  0  0  0  0  0 
    0.4664   -2.0637    2.8858 C   0  0  0  0  0  0  0  0  0  0  0  0 
   -0.3588   -1.3111    0.5033 C   0  0  0  0  0  0  0  0  0  0  0  0 
    0.7026   -1.1966    1.6236 C   0  0  0  0  0  0  0  0  0  0  0  0 
    3.0067   -0.8446    1.0037 C   0  0  0  0  0  0  0  0  0  0  0  0 
    1.9889   -1.6105    1.0736 N   0  0  0  0  0  0  0  0  0  0  0  0 
    3.1261    0.5280    1.2140 N   0  0  0  0  0  0  0  0  0  0  0  0 
    4.2157   -1.4164    0.7102 O   0  0  0  0  0  0  0  0  0  0  0  0 
    4.3355    2.0544    1.9518 H   0  0  0  0  0  0  0  0  0  0  0  0 
    5.0249    1.2383    0.5260 H   0  0  0  0  0  0  0  0  0  0  0  0 
    5.0259    0.4247    2.1068 H   0  0  0  0  0  0  0  0  0  0  0  0 
    2.7296    1.7927   -0.4443 H   0  0  0  0  0  0  0  0  0  0  0  0 
    2.0121    2.3104    1.1003 H   0  0  0  0  0  0  0  0  0  0  0  0 
    1.3183    0.9421    0.2108 H   0  0  0  0  0  0  0  0  0  0  0  0 
   -3.2196   -3.7316    2.1718 H   0  0  0  0  0  0  0  0  0  0  0  0 
   -1.5625   -3.5618    1.6529 H   0  0  0  0  0  0  0  0  0  0  0  0 
   -1.8090   -3.5728    4.0927 H   0  0  0  0  0  0  0  0  0  0  0  0 
   -2.8658   -2.1737    4.0554 H   0  0  0  0  0  0  0  0  0  0  0  0 
   -3.7171   -1.3809    1.5939 H   0  0  0  0  0  0  0  0  0  0  0  0 
   -3.1513   -2.3367    0.2367 H   0  0  0  0  0  0  0  0  0  0  0  0 
   -0.4973   -1.7657    4.7996 H   0  0  0  0  0  0  0  0  0  0  0  0 
   -1.0559   -0.6701    3.5693 H   0  0  0  0  0  0  0  0  0  0  0  0 
   -1.7125   -0.0617    1.6574 H   0  0  0  0  0  0  0  0  0  0  0  0 
   -2.1614   -0.2283   -0.0158 H   0  0  0  0  0  0  0  0  0  0  0  0 
    0.4599   -3.1218    2.5935 H   0  0  0  0  0  0  0  0  0  0  0  0 
    1.3652   -1.9360    3.5008 H   0  0  0  0  0  0  0  0  0  0  0  0 
    0.0313   -0.7455   -0.3525 H   0  0  0  0  0  0  0  0  0  0  0  0 
   -0.3924   -2.3532    0.1604 H   0  0  0  0  0  0  0  0  0  0  0  0 
    0.7174   -0.1494    1.9690 H   0  0  0  0  0  0  0  0  0  0  0  0 
    4.0319   -2.3731    0.7199 H   0  0  0  0  0  0  0  0  0  0  0  0 
  1 15  1  0  0  0  0 
  1 17  1  0  0  0  0 
  2 19  1  0  0  0  0 
  2 13  1  0  0  0  0 
  3 21  1  0  0  0  0 
  3  4  1  0  0  0  0 
  4  6  1  0  0  0  0 
  4 24  1  0  0  0  0 
  4 23  1  0  0  0  0 
  5 25  1  0  0  0  0 
  5  3  1  0  0  0  0 
  6 27  1  0  0  0  0 
  7  5  1  0  0  0  0 
  7 29  1  0  0  0  0 
  8 32  1  0  0  0  0 
  8  6  1  0  0  0  0 
  9  7  1  0  0  0  0 
  9 10  1  0  0  0  0 
 10 35  1  0  0  0  0 
 10  8  1  0  0  0  0 
 11 12  2  0  0  0  0 
 11 13  1  0  0  0  0 
 12 10  1  0  0  0  0 
 13  1  1  0  0  0  0 
 14 36  1  0  0  0  0 
 14 11  1  0  0  0  0 
 16  1  1  0  0  0  0 
 18  2  1  0  0  0  0 
 20  2  1  0  0  0  0 
 22  3  1  0  0  0  0 
 26  5  1  0  0  0  0 
 28  6  1  0  0  0  0 
 30  7  1  0  0  0  0 
 31  8  1  0  0  0  0 
 33  9  1  0  0  0  0 
 34  9  1  0  0  0  0 
M  END 
>  <HBA> 
3 
 
>  <HBD> 
1 
 
>  <TPSA> 
32.34 
 
>  <cid> 
16554 
 
>  <dipole> 
1.45 
 
>  <excitation_energy_1> 
5.292 
 
>  <excitation_energy_2> 
5.594 
 
>  <excitation_energy_3> 
5.764 
 
>  <excitation_energy_4> 
5.859 
 
>  <homo_energy> 
-5.761 
 
>  <homo_lumo_gap> 
7.045 
 
>  <logP> 
2.761 
 
>  <lumo_energy> 
1.284 
 
>  <melting_point> 
54.23 
 
>  <molecular_refractivity> 
59.16 
 
>  <oscillator_strength_1> 
0.0197 
 
>  <oscillator_strength_2> 
0.0089 
 
>  <oscillator_strength_3> 
0.0097 
 
>  <oscillator_strength_4> 
0.0362 
 
>  <open_babel_can_smiles> 
CN(/C(=N\C1CCCCCCC1)/O)C 
 
>  <mulliken_charges> 
36 
1   -0.293459 
2   -0.320173 
3   -0.258223 
4   -0.255788 
5   -0.255189 
6   -0.268224 
7   -0.268632 
8   -0.24781 
9   -0.258154 
10   0.000813 
11   0.640076 
12   -0.489707 
13   -0.426339 
14   -0.605722 
15   0.147644 
16   0.147779 
17   0.17521 
18   0.145971 
19   0.155886 
20   0.182415 
21   0.126466 
22   0.136354 
23   0.128206 
24   0.123765 
25   0.124313 
26   0.128373 
27   0.129359 
28   0.132325 
29   0.133488 
30   0.127916 
31   0.137187 
32   0.130628 
33   0.129054 
34   0.141949 
35   0.114812 
36   0.407431 
 
>  <lowdin_charges> 
36 
1   -0.350421 
2   -0.350127 
3   -0.285219 
4   -0.278529 
5   -0.277958 
6   -0.282935 
7   -0.287658 
8   -0.281407 
9   -0.285716 
10   -0.05772 
11   0.157075 
12   -0.276565 
13   -0.142362 
14   -0.382269 
15   0.149605 
16   0.141285 
17   0.168598 
18   0.139856 
19   0.151214 
20   0.169194 
21   0.143915 
22   0.141738 
23   0.140242 
24   0.139037 
25   0.139043 
26   0.140402 
27   0.142155 
28   0.137198 
29   0.139452 
30   0.143656 
31   0.142733 
32   0.146386 
33   0.14167 
34   0.146139 
35   0.120986 
36   0.357307 
 
$$$$ 
 
