PCCDB-ID:  8040 
public computational chemistry database (PCCDB) project, http://pccdb.org 
 
 14 13  0  0  0  0  0  0  0  0999 V2000 
   -1.0942   -0.9825   -0.8156 C   0  0  0  0  0  0  0  0  0  0  0  0 
    3.4058   -3.4341    1.6505 C   0  0  0  0  0  0  0  0  0  0  0  0 
    0.0664   -1.9047   -0.5252 C   0  0  0  0  0  0  0  0  0  0  0  0 
    2.1741   -2.5773    1.4818 C   0  0  0  0  0  0  0  0  0  0  0  0 
    0.1190   -3.0891   -0.7048 O   0  0  0  0  0  0  0  0  0  0  0  0 
    1.2568   -2.4516    2.2431 O   0  0  0  0  0  0  0  0  0  0  0  0 
    1.0981   -1.1426   -0.0063 O   0  0  0  0  0  0  0  0  0  0  0  0 
    2.2609   -1.9564    0.2465 O   0  0  0  0  0  0  0  0  0  0  0  0 
   -1.3063   -1.0157   -1.8887 H   0  0  0  0  0  0  0  0  0  0  0  0 
   -0.8941    0.0463   -0.5122 H   0  0  0  0  0  0  0  0  0  0  0  0 
   -1.9731   -1.3598   -0.2853 H   0  0  0  0  0  0  0  0  0  0  0  0 
    4.2786   -2.9918    1.1647 H   0  0  0  0  0  0  0  0  0  0  0  0 
    3.2162   -4.4115    1.1934 H   0  0  0  0  0  0  0  0  0  0  0  0 
    3.5907   -3.5721    2.7171 H   0  0  0  0  0  0  0  0  0  0  0  0 
  1  3  1  0  0  0  0 
  1 10  1  0  0  0  0 
  1 11  1  0  0  0  0 
  2 14  1  0  0  0  0 
  3  7  1  0  0  0  0 
  4  2  1  0  0  0  0 
  4  6  2  0  0  0  0 
  5  3  2  0  0  0  0 
  7  8  1  0  0  0  0 
  8  4  1  0  0  0  0 
  9  1  1  0  0  0  0 
 12  2  1  0  0  0  0 
 13  2  1  0  0  0  0 
M  END 
>  <HBA> 
4 
 
>  <HBD> 
0 
 
>  <TPSA> 
52.6 
 
>  <cid> 
8040 
 
>  <dipole> 
1.24 
 
>  <excitation_energy_1> 
5.897 
 
>  <excitation_energy_2> 
5.92 
 
>  <excitation_energy_3> 
6.115 
 
>  <excitation_energy_4> 
6.251 
 
>  <homo_energy> 
-7.81 
 
>  <homo_lumo_gap> 
7.483 
 
>  <logP> 
0.028 
 
>  <lumo_energy> 
-0.327 
 
>  <melting_point> 
4.34 
 
>  <molecular_refractivity> 
23.91 
 
>  <oscillator_strength_1> 
0.0007 
 
>  <oscillator_strength_2> 
0.0006 
 
>  <oscillator_strength_3> 
0.0013 
 
>  <oscillator_strength_4> 
0.0119 
 
>  <open_babel_can_smiles> 
CC(=O)OOC(=O)C 
 
>  <mulliken_charges> 
14 
1   -0.542363 
2   -0.538693 
3   0.638682 
4   0.629199 
5   -0.433991 
6   -0.430848 
7   -0.254669 
8   -0.252679 
9   0.197707 
10   0.191104 
11   0.203915 
12   0.189376 
13   0.207769 
14   0.195492 
 
>  <lowdin_charges> 
14 
1   -0.459523 
2   -0.462793 
3   0.203067 
4   0.209308 
5   -0.224378 
6   -0.222299 
7   -0.074298 
8   -0.081245 
9   0.185883 
10   0.178352 
11   0.191123 
12   0.180956 
13   0.192284 
14   0.183563 
 
$$$$ 
 
