PCCDB-ID:  34320 
public computational chemistry database (PCCDB) project, http://pccdb.org 
 
 33 32  0  0  0  0  0  0  0  0999 V2000 
    1.2010    1.2011    1.0282 C   0  0  0  0  0  0  0  0  0  0  0  0 
    5.8247   -4.2831   -4.8891 C   0  0  0  0  0  0  0  0  0  0  0  0 
    2.5981    0.8603    0.5934 C   0  0  0  0  0  0  0  0  0  0  0  0 
    5.4267   -2.8581   -5.2875 C   0  0  0  0  0  0  0  0  0  0  0  0 
    3.3731    1.6215   -0.1839 C   0  0  0  0  0  0  0  0  0  0  0  0 
    6.1575   -1.7765   -4.4808 C   0  0  0  0  0  0  0  0  0  0  0  0 
    4.7681    1.2767   -0.6300 C   0  0  0  0  0  0  0  0  0  0  0  0 
    5.7494   -0.3492   -4.8716 C   0  0  0  0  0  0  0  0  0  0  0  0 
    4.8967    1.1347   -2.1594 C   0  0  0  0  0  0  0  0  0  0  0  0 
    6.5207    0.7634   -4.1390 C   0  0  0  0  0  0  0  0  0  0  0  0 
    6.3304    0.8266   -2.6128 C   0  0  0  0  0  0  0  0  0  0  0  0 
    1.1223    1.2446    2.1232 H   0  0  0  0  0  0  0  0  0  0  0  0 
    0.4819    0.4402    0.6946 H   0  0  0  0  0  0  0  0  0  0  0  0 
    0.8795    2.1686    0.6276 H   0  0  0  0  0  0  0  0  0  0  0  0 
    5.2853   -5.0309   -5.4816 H   0  0  0  0  0  0  0  0  0  0  0  0 
    5.6056   -4.4748   -3.8313 H   0  0  0  0  0  0  0  0  0  0  0  0 
    6.8985   -4.4510   -5.0386 H   0  0  0  0  0  0  0  0  0  0  0  0 
    2.9939   -0.0910    0.9558 H   0  0  0  0  0  0  0  0  0  0  0  0 
    4.3418   -2.7327   -5.1617 H   0  0  0  0  0  0  0  0  0  0  0  0 
    5.6273   -2.7081   -6.3579 H   0  0  0  0  0  0  0  0  0  0  0  0 
    2.9780    2.5737   -0.5469 H   0  0  0  0  0  0  0  0  0  0  0  0 
    7.2431   -1.8936   -4.6195 H   0  0  0  0  0  0  0  0  0  0  0  0 
    5.9687   -1.9416   -3.4108 H   0  0  0  0  0  0  0  0  0  0  0  0 
    5.0922    0.3454   -0.1457 H   0  0  0  0  0  0  0  0  0  0  0  0 
    5.4658    2.0597   -0.2936 H   0  0  0  0  0  0  0  0  0  0  0  0 
    4.6695   -0.2243   -4.7110 H   0  0  0  0  0  0  0  0  0  0  0  0 
    5.9066   -0.2215   -5.9522 H   0  0  0  0  0  0  0  0  0  0  0  0 
    4.5567    2.0647   -2.6392 H   0  0  0  0  0  0  0  0  0  0  0  0 
    4.2093    0.3484   -2.4971 H   0  0  0  0  0  0  0  0  0  0  0  0 
    6.2300    1.7331   -4.5684 H   0  0  0  0  0  0  0  0  0  0  0  0 
    7.5928    0.6470   -4.3535 H   0  0  0  0  0  0  0  0  0  0  0  0 
    6.6622   -0.1153   -2.1541 H   0  0  0  0  0  0  0  0  0  0  0  0 
    6.9994    1.6032   -2.2150 H   0  0  0  0  0  0  0  0  0  0  0  0 
  1 12  1  0  0  0  0 
  2 16  1  0  0  0  0 
  3 18  1  0  0  0  0 
  3  1  1  0  0  0  0 
  4 19  1  0  0  0  0 
  4  2  1  0  0  0  0 
  4  6  1  0  0  0  0 
  5  3  2  0  0  0  0 
  6 23  1  0  0  0  0 
  7 25  1  0  0  0  0 
  7  5  1  0  0  0  0 
  7 24  1  0  0  0  0 
  8 26  1  0  0  0  0 
  8  6  1  0  0  0  0 
  8 10  1  0  0  0  0 
  9  7  1  0  0  0  0 
 10 11  1  0  0  0  0 
 11 33  1  0  0  0  0 
 11  9  1  0  0  0  0 
 11 32  1  0  0  0  0 
 13  1  1  0  0  0  0 
 14  1  1  0  0  0  0 
 15  2  1  0  0  0  0 
 17  2  1  0  0  0  0 
 20  4  1  0  0  0  0 
 21  5  1  0  0  0  0 
 22  6  1  0  0  0  0 
 27  8  1  0  0  0  0 
 28  9  1  0  0  0  0 
 29  9  1  0  0  0  0 
 30 10  1  0  0  0  0 
 31 10  1  0  0  0  0 
M  END 
>  <HBA> 
0 
 
>  <HBD> 
0 
 
>  <TPSA> 
0.0 
 
>  <cid> 
34320 
 
>  <dipole> 
0.07 
 
>  <excitation_energy_1> 
6.081 
 
>  <excitation_energy_2> 
6.32 
 
>  <excitation_energy_3> 
6.346 
 
>  <excitation_energy_4> 
6.58 
 
>  <homo_energy> 
-6.376 
 
>  <homo_lumo_gap> 
7.306 
 
>  <logP> 
4.313 
 
>  <lumo_energy> 
0.931 
 
>  <melting_point> 
-20.09 
 
>  <molecular_refractivity> 
54.52 
 
>  <oscillator_strength_1> 
0.0182 
 
>  <oscillator_strength_2> 
0.0135 
 
>  <oscillator_strength_3> 
0.0027 
 
>  <oscillator_strength_4> 
0.0061 
 
>  <open_babel_can_smiles> 
CCCCCCCC/C=C/C 
 
>  <mulliken_charges> 
33 
1   -0.485916 
2   -0.441646 
3   -0.092688 
4   -0.246746 
5   -0.085919 
6   -0.247016 
7   -0.301714 
8   -0.256388 
9   -0.25353 
10   -0.257873 
11   -0.256483 
12   0.152608 
13   0.152462 
14   0.150509 
15   0.141001 
16   0.140605 
17   0.140808 
18   0.115192 
19   0.130006 
20   0.129565 
21   0.111745 
22   0.125069 
23   0.13086 
24   0.133465 
25   0.135788 
26   0.13225 
27   0.126509 
28   0.126965 
29   0.13972 
30   0.125793 
31   0.126081 
32   0.132189 
33   0.12673 
 
>  <lowdin_charges> 
33 
1   -0.438038 
2   -0.442953 
3   -0.168249 
4   -0.267875 
5   -0.169259 
6   -0.273332 
7   -0.271195 
8   -0.274497 
9   -0.277075 
10   -0.273879 
11   -0.279939 
12   0.15305 
13   0.15584 
14   0.15335 
15   0.150051 
16   0.144378 
17   0.144277 
18   0.144306 
19   0.136663 
20   0.136552 
21   0.143087 
22   0.134559 
23   0.136418 
24   0.143662 
25   0.145492 
26   0.137016 
27   0.13833 
28   0.137958 
29   0.143687 
30   0.139326 
31   0.137971 
32   0.138986 
33   0.141332 
 
$$$$ 
 
