PCCDB-ID:  20087 
public computational chemistry database (PCCDB) project, http://pccdb.org 
 
 43 43  0  0  0  0  0  0  0  0999 V2000 
    3.7219    0.7462    1.0703 C   0  0  0  0  0  0  0  0  0  0  0  0 
    0.9761    5.7623    0.4615 C   0  0  0  0  0  0  0  0  0  0  0  0 
    3.0045    7.1004    0.0127 C   0  0  0  0  0  0  0  0  0  0  0  0 
    1.2666    6.6665   -1.8205 C   0  0  0  0  0  0  0  0  0  0  0  0 
    6.8023    4.5821   -3.0337 C   0  0  0  0  0  0  0  0  0  0  0  0 
    6.2399    2.2647   -3.7365 C   0  0  0  0  0  0  0  0  0  0  0  0 
    5.0700    4.1606   -4.8418 C   0  0  0  0  0  0  0  0  0  0  0  0 
    2.8255    1.0486   -0.1438 C   0  0  0  0  0  0  0  0  0  0  0  0 
    2.5005    3.5393   -0.4687 C   0  0  0  0  0  0  0  0  0  0  0  0 
    4.1608    2.4357   -1.7906 C   0  0  0  0  0  0  0  0  0  0  0  0 
    3.1596    2.3629   -0.8195 C   0  0  0  0  0  0  0  0  0  0  0  0 
    2.8074    4.7804   -1.0436 C   0  0  0  0  0  0  0  0  0  0  0  0 
    4.5275    3.6317   -2.4150 C   0  0  0  0  0  0  0  0  0  0  0  0 
    3.8317    4.7997   -2.0204 C   0  0  0  0  0  0  0  0  0  0  0  0 
    2.0403    6.0589   -0.6180 C   0  0  0  0  0  0  0  0  0  0  0  0 
    5.6402    3.6650   -3.4895 C   0  0  0  0  0  0  0  0  0  0  0  0 
    4.2079    5.9675   -2.6522 O   0  0  0  0  0  0  0  0  0  0  0  0 
    3.4523   -0.2114    1.5314 H   0  0  0  0  0  0  0  0  0  0  0  0 
    3.6275    1.5291    1.8316 H   0  0  0  0  0  0  0  0  0  0  0  0 
    4.7768    0.6968    0.7768 H   0  0  0  0  0  0  0  0  0  0  0  0 
    0.4681    6.6944    0.7334 H   0  0  0  0  0  0  0  0  0  0  0  0 
    1.4208    5.3501    1.3733 H   0  0  0  0  0  0  0  0  0  0  0  0 
    0.2132    5.0634    0.1028 H   0  0  0  0  0  0  0  0  0  0  0  0 
    2.4522    8.0041    0.2965 H   0  0  0  0  0  0  0  0  0  0  0  0 
    3.8280    7.4130   -0.6382 H   0  0  0  0  0  0  0  0  0  0  0  0 
    3.4648    6.6860    0.9162 H   0  0  0  0  0  0  0  0  0  0  0  0 
    0.7318    7.5715   -1.5085 H   0  0  0  0  0  0  0  0  0  0  0  0 
    0.5293    5.9477   -2.1939 H   0  0  0  0  0  0  0  0  0  0  0  0 
    1.8954    6.9376   -2.6752 H   0  0  0  0  0  0  0  0  0  0  0  0 
    7.5987    4.5782   -3.7886 H   0  0  0  0  0  0  0  0  0  0  0  0 
    7.2319    4.2199   -2.0920 H   0  0  0  0  0  0  0  0  0  0  0  0 
    6.4738    5.6120   -2.8877 H   0  0  0  0  0  0  0  0  0  0  0  0 
    7.0177    2.3378   -4.5049 H   0  0  0  0  0  0  0  0  0  0  0  0 
    5.4901    1.5508   -4.0960 H   0  0  0  0  0  0  0  0  0  0  0  0 
    6.7059    1.8502   -2.8352 H   0  0  0  0  0  0  0  0  0  0  0  0 
    5.8629    4.1695   -5.6004 H   0  0  0  0  0  0  0  0  0  0  0  0 
    4.6593    5.1683   -4.7640 H   0  0  0  0  0  0  0  0  0  0  0  0 
    4.2765    3.4907   -5.1944 H   0  0  0  0  0  0  0  0  0  0  0  0 
    1.7764    1.0588    0.1792 H   0  0  0  0  0  0  0  0  0  0  0  0 
    2.9161    0.2288   -0.8685 H   0  0  0  0  0  0  0  0  0  0  0  0 
    1.7185    3.4775    0.2794 H   0  0  0  0  0  0  0  0  0  0  0  0 
    4.6670    1.5170   -2.0649 H   0  0  0  0  0  0  0  0  0  0  0  0 
    3.6819    6.7002   -2.3108 H   0  0  0  0  0  0  0  0  0  0  0  0 
  1 18  1  0  0  0  0 
  1 19  1  0  0  0  0 
  2 21  1  0  0  0  0 
  2 22  1  0  0  0  0 
  3 24  1  0  0  0  0 
  3 26  1  0  0  0  0 
  4 27  1  0  0  0  0 
  4 15  1  0  0  0  0 
  5 32  1  0  0  0  0 
  5 31  1  0  0  0  0 
  6 16  1  0  0  0  0 
  6 35  1  0  0  0  0 
  7 37  1  0  0  0  0 
  7 16  1  0  0  0  0 
  8 39  1  0  0  0  0 
  8  1  1  0  0  0  0 
  9 41  1  0  0  0  0 
 10 11  2  0  0  0  0 
 11  9  1  0  0  0  0 
 11  8  1  0  0  0  0 
 12 15  1  0  0  0  0 
 12  9  2  0  0  0  0 
 13 14  2  0  0  0  0 
 13 10  1  0  0  0  0 
 14 12  1  0  0  0  0 
 15  3  1  0  0  0  0 
 15  2  1  0  0  0  0 
 16  5  1  0  0  0  0 
 16 13  1  0  0  0  0 
 17 43  1  0  0  0  0 
 17 14  1  0  0  0  0 
 20  1  1  0  0  0  0 
 23  2  1  0  0  0  0 
 25  3  1  0  0  0  0 
 28  4  1  0  0  0  0 
 29  4  1  0  0  0  0 
 30  5  1  0  0  0  0 
 33  6  1  0  0  0  0 
 34  6  1  0  0  0  0 
 36  7  1  0  0  0  0 
 38  7  1  0  0  0  0 
 40  8  1  0  0  0  0 
 42 10  1  0  0  0  0 
M  END 
>  <HBA> 
1 
 
>  <HBD> 
1 
 
>  <TPSA> 
20.23 
 
>  <cid> 
20087 
 
>  <dipole> 
1.89 
 
>  <excitation_energy_1> 
4.888 
 
>  <excitation_energy_2> 
5.038 
 
>  <excitation_energy_3> 
5.282 
 
>  <excitation_energy_4> 
5.528 
 
>  <homo_energy> 
-5.532 
 
>  <homo_lumo_gap> 
5.782 
 
>  <logP> 
4.55 
 
>  <lumo_energy> 
0.25 
 
>  <melting_point> 
67.05 
 
>  <molecular_refractivity> 
76.78 
 
>  <oscillator_strength_1> 
0.051 
 
>  <oscillator_strength_2> 
0.0031 
 
>  <oscillator_strength_3> 
0.05 
 
>  <oscillator_strength_4> 
0.0028 
 
>  <open_babel_can_smiles> 
CCc1cc(c(c(c1)C(C)(C)C)O)C(C)(C)C 
 
>  <mulliken_charges> 
43 
1   -0.431108 
2   -0.455058 
3   -0.456899 
4   -0.456458 
5   -0.448548 
6   -0.454377 
7   -0.448888 
8   -0.340179 
9   -0.28736 
10   -0.281773 
11   0.206351 
12   0.175131 
13   0.154211 
14   0.181519 
15   -0.015127 
16   0.036428 
17   -0.657505 
18   0.139435 
19   0.14505 
20   0.14735 
21   0.141692 
22   0.150784 
23   0.15096 
24   0.145256 
25   0.140199 
26   0.159668 
27   0.14481 
28   0.15971 
29   0.140367 
30   0.129428 
31   0.135462 
32   0.168491 
33   0.138853 
34   0.141957 
35   0.1415 
36   0.129415 
37   0.168704 
38   0.135608 
39   0.136628 
40   0.139626 
41   0.115978 
42   0.118553 
43   0.414155 
 
>  <lowdin_charges> 
43 
1   -0.440446 
2   -0.442001 
3   -0.449652 
4   -0.450341 
5   -0.445833 
6   -0.446064 
7   -0.447233 
8   -0.268943 
9   -0.178471 
10   -0.175131 
11   -0.02186 
12   -0.051807 
13   -0.025147 
14   0.087208 
15   0.010372 
16   0.023297 
17   -0.388223 
18   0.146871 
19   0.149016 
20   0.147969 
21   0.150738 
22   0.152213 
23   0.152908 
24   0.150544 
25   0.145637 
26   0.159466 
27   0.150301 
28   0.160114 
29   0.145642 
30   0.143179 
31   0.145687 
32   0.159389 
33   0.14985 
34   0.147948 
35   0.147337 
36   0.143217 
37   0.159813 
38   0.146544 
39   0.143919 
40   0.147369 
41   0.156216 
42   0.158045 
43   0.350343 
 
$$$$ 
 
