PCCDB-ID:  13570 
public computational chemistry database (PCCDB) project, http://pccdb.org 
 
 16 15  0  0  0  0  0  0  0  0999 V2000 
    0.1901   -0.4220    0.2253 C   0  0  0  0  0  0  0  0  0  0  0  0 
    5.6035    1.4216   -1.0077 C   0  0  0  0  0  0  0  0  0  0  0  0 
    1.5485    0.1651   -0.0420 C   0  0  0  0  0  0  0  0  0  0  0  0 
    4.1602    1.2082   -0.5857 C   0  0  0  0  0  0  0  0  0  0  0  0 
    2.5460   -0.5427   -0.5862 C   0  0  0  0  0  0  0  0  0  0  0  0 
    3.8132   -0.1426   -0.8809 O   0  0  0  0  0  0  0  0  0  0  0  0 
   -0.0706   -0.3724    1.2915 H   0  0  0  0  0  0  0  0  0  0  0  0 
    0.1417   -1.4741   -0.0782 H   0  0  0  0  0  0  0  0  0  0  0  0 
   -0.5987    0.1164   -0.3180 H   0  0  0  0  0  0  0  0  0  0  0  0 
    5.9125    2.4501   -0.7915 H   0  0  0  0  0  0  0  0  0  0  0  0 
    5.7225    1.2415   -2.0808 H   0  0  0  0  0  0  0  0  0  0  0  0 
    6.2679    0.7389   -0.4685 H   0  0  0  0  0  0  0  0  0  0  0  0 
    1.6952    1.2076    0.2286 H   0  0  0  0  0  0  0  0  0  0  0  0 
    3.4838    1.8875   -1.1250 H   0  0  0  0  0  0  0  0  0  0  0  0 
    4.0292    1.3944    0.4906 H   0  0  0  0  0  0  0  0  0  0  0  0 
    2.4193   -1.5871   -0.8629 H   0  0  0  0  0  0  0  0  0  0  0  0 
  1  7  1  0  0  0  0 
  2 10  1  0  0  0  0 
  2  4  1  0  0  0  0 
  2 12  1  0  0  0  0 
  3  1  1  0  0  0  0 
  3 13  1  0  0  0  0 
  4 15  1  0  0  0  0 
  5  3  2  0  0  0  0 
  6  5  1  0  0  0  0 
  6  4  1  0  0  0  0 
  8  1  1  0  0  0  0 
  9  1  1  0  0  0  0 
 11  2  1  0  0  0  0 
 14  4  1  0  0  0  0 
 16  5  1  0  0  0  0 
M  END 
>  <HBA> 
1 
 
>  <HBD> 
0 
 
>  <TPSA> 
9.23 
 
>  <cid> 
13570 
 
>  <dipole> 
1.0 
 
>  <excitation_energy_1> 
5.49 
 
>  <excitation_energy_2> 
5.822 
 
>  <excitation_energy_3> 
5.884 
 
>  <excitation_energy_4> 
6.395 
 
>  <homo_energy> 
-5.742 
 
>  <homo_lumo_gap> 
7.165 
 
>  <logP> 
1.556 
 
>  <lumo_energy> 
1.423 
 
>  <melting_point> 
-25.06 
 
>  <molecular_refractivity> 
26.76 
 
>  <oscillator_strength_1> 
0.0153 
 
>  <oscillator_strength_2> 
0.0009 
 
>  <oscillator_strength_3> 
0.0049 
 
>  <oscillator_strength_4> 
0.0157 
 
>  <open_babel_can_smiles> 
CCO/C=C/C 
 
>  <mulliken_charges> 
16 
1   -0.484984 
2   -0.455949 
3   -0.147352 
4   -0.024969 
5   0.118119 
6   -0.452302 
7   0.150136 
8   0.148385 
9   0.150169 
10   0.146232 
11   0.161411 
12   0.16156 
13   0.122479 
14   0.137481 
15   0.137453 
16   0.132131 
 
>  <lowdin_charges> 
16 
1   -0.428724 
2   -0.446538 
3   -0.242671 
4   -0.123089 
5   -0.056375 
6   -0.205317 
7   0.150176 
8   0.151084 
9   0.152694 
10   0.154996 
11   0.157124 
12   0.160179 
13   0.151149 
14   0.138356 
15   0.134865 
16   0.152092 
 
$$$$ 
 
