PCCDB-ID:  71152 
public computational chemistry database (PCCDB) project, http://pccdb.org 
 
 30 32  0  0  1  0  0  0  0  0999 V2000 
   -1.6108    0.1916    0.3419 C   0  0  0  0  0  0  0  0  0  0  0  0 
   -1.3396    0.0598   -1.0219 C   0  0  0  0  0  0  0  0  0  0  0  0 
   -0.5570    0.3737    1.2371 C   0  0  0  0  0  0  0  0  0  0  0  0 
   -0.0252    0.1098   -1.4841 C   0  0  0  0  0  0  0  0  0  0  0  0 
    0.7576    0.4231    0.7696 C   0  0  0  0  0  0  0  0  0  0  0  0 
    5.6913   -0.4590   -4.4479 C   0  0  0  0  0  0  0  0  0  0  0  0 
    6.0456    0.9497   -3.9456 C   0  0  0  0  0  0  0  0  0  0  0  0 
    2.7995    1.4898   -2.0876 C   0  0  0  0  0  0  0  0  0  0  0  0 
    2.9662   -0.9201   -1.8199 C   0  0  0  0  0  0  0  0  0  0  0  0 
    1.0447    0.2925   -0.5947 C   0  0  0  0  0  0  0  0  0  0  0  0 
    2.4779    0.3536   -1.0818 C   0  0  2  0  0  0  0  0  0  0  0  0 
    4.0299    0.9890   -2.8080 C   0  0  0  0  0  0  0  0  0  0  0  0 
    4.8433   -1.2371   -3.4530 C   0  0  0  0  0  0  0  0  0  0  0  0 
    4.9088    1.6955   -3.3955 N   0  0  0  0  0  0  0  0  0  0  0  0 
    4.0422   -0.4178   -2.6774 N   0  0  0  0  0  0  0  0  0  0  0  0 
    4.8021   -2.4529   -3.3669 O   0  0  0  0  0  0  0  0  0  0  0  0 
   -2.6352    0.1525    0.7020 H   0  0  0  0  0  0  0  0  0  0  0  0 
   -2.1534   -0.0826   -1.7280 H   0  0  0  0  0  0  0  0  0  0  0  0 
   -0.7551    0.4770    2.3007 H   0  0  0  0  0  0  0  0  0  0  0  0 
    0.1658    0.0060   -2.5499 H   0  0  0  0  0  0  0  0  0  0  0  0 
    1.5738    0.5651    1.4746 H   0  0  0  0  0  0  0  0  0  0  0  0 
    6.5819   -1.0493   -4.6805 H   0  0  0  0  0  0  0  0  0  0  0  0 
    5.1013   -0.3873   -5.3734 H   0  0  0  0  0  0  0  0  0  0  0  0 
    6.4852    1.5364   -4.7584 H   0  0  0  0  0  0  0  0  0  0  0  0 
    6.8138    0.8823   -3.1597 H   0  0  0  0  0  0  0  0  0  0  0  0 
    2.9746    2.4584   -1.6149 H   0  0  0  0  0  0  0  0  0  0  0  0 
    1.9809    1.6162   -2.8083 H   0  0  0  0  0  0  0  0  0  0  0  0 
    2.1751   -1.3710   -2.4314 H   0  0  0  0  0  0  0  0  0  0  0  0 
    3.3415   -1.6907   -1.1426 H   0  0  0  0  0  0  0  0  0  0  0  0 
    3.1298    0.4948   -0.2111 H   0  0  0  0  0  0  0  0  0  0  0  0 
  1 17  1  0  0  0  0 
  1  3  2  0  0  0  0 
  2  1  1  0  0  0  0 
  3 19  1  0  0  0  0 
  4  2  2  0  0  0  0 
  4 10  1  0  0  0  0 
  5  3  1  0  0  0  0 
  5 21  1  0  0  0  0 
  6  7  1  0  0  0  0 
  6 13  1  0  0  0  0 
  7 14  1  0  0  0  0 
  7 25  1  0  0  0  0 
  8 26  1  0  0  0  0 
  8 11  1  0  0  0  0 
  9 29  1  0  0  0  0 
  9 11  1  0  0  0  0 
 10  5  2  0  0  0  0 
 11 10  1  0  0  0  0 
 11 30  1  1  0  0  0 
 12 15  1  0  0  0  0 
 12  8  1  0  0  0  0 
 13 16  2  0  0  0  0 
 13 15  1  0  0  0  0 
 14 12  2  0  0  0  0 
 15  9  1  0  0  0  0 
 18  2  1  0  0  0  0 
 20  4  1  0  0  0  0 
 22  6  1  0  0  0  0 
 23  6  1  0  0  0  0 
 24  7  1  0  0  0  0 
 27  8  1  0  0  0  0 
 28  9  1  0  0  0  0 
M  END 
>  <HBA> 
3 
 
>  <HBD> 
0 
 
>  <TPSA> 
32.67 
 
>  <cid> 
71152 
 
>  <dipole> 
2.21 
 
>  <excitation_energy_1> 
5.008 
 
>  <excitation_energy_2> 
5.188 
 
>  <excitation_energy_3> 
5.285 
 
>  <excitation_energy_4> 
5.463 
 
>  <homo_energy> 
-6.553 
 
>  <homo_lumo_gap> 
6.06 
 
>  <logP> 
1.178 
 
>  <lumo_energy> 
-0.493 
 
>  <melting_point> 
90.21 
 
>  <molecular_refractivity> 
70.04 
 
>  <oscillator_strength_1> 
0.0012 
 
>  <oscillator_strength_2> 
0.005 
 
>  <oscillator_strength_3> 
0.0058 
 
>  <oscillator_strength_4> 
0.0963 
 
>  <open_babel_can_smiles> 
O=C1CCN=C2N1C[C@@H](C2)c1ccccc1 
 
>  <mulliken_charges> 
30 
1   -0.128432 
2   -0.129909 
3   -0.126522 
4   -0.186919 
5   -0.191765 
6   -0.381571 
7   -0.162767 
8   -0.342236 
9   -0.113737 
10   0.189132 
11   -0.237913 
12   0.511342 
13   0.588347 
14   -0.468383 
15   -0.500706 
16   -0.493566 
17   0.133224 
18   0.133953 
19   0.133654 
20   0.127472 
21   0.128668 
22   0.175366 
23   0.176111 
24   0.155523 
25   0.155226 
26   0.181162 
27   0.173152 
28   0.167205 
29   0.181536 
30   0.153353 
 
>  <lowdin_charges> 
30 
1   -0.155029 
2   -0.153004 
3   -0.150554 
4   -0.164999 
5   -0.167035 
6   -0.315544 
7   -0.206713 
8   -0.280875 
9   -0.190361 
10   -0.00474 
11   -0.127475 
12   0.085652 
13   0.160434 
14   -0.217063 
15   -0.095954 
16   -0.276116 
17   0.158761 
18   0.160622 
19   0.158133 
20   0.152984 
21   0.157217 
22   0.175071 
23   0.170069 
24   0.156708 
25   0.150095 
26   0.173562 
27   0.167521 
28   0.155132 
29   0.168921 
30   0.154579 
 
$$$$ 
 
