PCCDB-ID:  35132 
public computational chemistry database (PCCDB) project, http://pccdb.org 
 
 30 30  0  0  1  0  0  0  0  0999 V2000 
    2.9652   -0.2106    1.3787 C   0  0  0  0  0  0  0  0  0  0  0  0 
    4.3656    4.9266   -5.4574 C   0  0  0  0  0  0  0  0  0  0  0  0 
    3.8431   -0.6176    0.1906 C   0  0  0  0  0  0  0  0  0  0  0  0 
    4.2400    3.8656   -4.3663 C   0  0  0  0  0  0  0  0  0  0  0  0 
    9.7730   -0.3640    1.0528 C   0  0  0  0  0  0  0  0  0  0  0  0 
    8.4819    0.0223    0.4945 C   0  0  0  0  0  0  0  0  0  0  0  0 
    4.8041    0.9843   -1.2662 C   0  0  0  0  0  0  0  0  0  0  0  0 
    5.6257    2.7013   -2.8674 C   0  0  0  0  0  0  0  0  0  0  0  0 
    7.0560    1.4985   -1.3269 C   0  0  1  0  0  0  0  0  0  0  0  0 
   10.7977   -0.6739    1.5005 N   0  0  0  0  0  0  0  0  0  0  0  0 
    3.7588    0.3776   -0.8660 N   0  0  0  0  0  0  0  0  0  0  0  0 
    5.5475    3.5735   -3.7921 N   0  0  0  0  0  0  0  0  0  0  0  0 
    4.6300    1.9479   -2.2862 N   0  0  0  0  0  0  0  0  0  0  0  0 
    6.1114    0.7975   -0.7993 N   0  0  0  0  0  0  0  0  0  0  0  0 
    6.8902    2.4235   -2.3167 N   0  0  0  0  0  0  0  0  0  0  0  0 
    8.7477    1.3203   -0.7897 S   0  0  0  0  0  0  0  0  0  0  0  0 
    2.9630   -0.9965    2.1430 H   0  0  0  0  0  0  0  0  0  0  0  0 
    1.9338   -0.0371    1.0548 H   0  0  0  0  0  0  0  0  0  0  0  0 
    3.3353    0.7131    1.8374 H   0  0  0  0  0  0  0  0  0  0  0  0 
    3.3871    5.1533   -5.8953 H   0  0  0  0  0  0  0  0  0  0  0  0 
    5.0312    4.5788   -6.2540 H   0  0  0  0  0  0  0  0  0  0  0  0 
    4.7854    5.8503   -5.0461 H   0  0  0  0  0  0  0  0  0  0  0  0 
    3.4676   -1.5653   -0.2198 H   0  0  0  0  0  0  0  0  0  0  0  0 
    4.8742   -0.7913    0.5255 H   0  0  0  0  0  0  0  0  0  0  0  0 
    3.7872    2.9548   -4.7955 H   0  0  0  0  0  0  0  0  0  0  0  0 
    3.5421    4.2241   -3.5896 H   0  0  0  0  0  0  0  0  0  0  0  0 
    7.8263    0.4170    1.2745 H   0  0  0  0  0  0  0  0  0  0  0  0 
    7.9847   -0.8345    0.0335 H   0  0  0  0  0  0  0  0  0  0  0  0 
    3.6777    2.0615   -2.6055 H   0  0  0  0  0  0  0  0  0  0  0  0 
    7.6579    2.9517   -2.7121 H   0  0  0  0  0  0  0  0  0  0  0  0 
  1 19  1  0  0  0  0 
  1 17  1  0  0  0  0 
  2 22  1  0  0  0  0 
  2  4  1  0  0  0  0 
  3 24  1  0  0  0  0 
  3  1  1  0  0  0  0 
  4 12  1  0  0  0  0 
  4 26  1  0  0  0  0 
  5 10  3  0  0  0  0 
  6  5  1  0  0  0  0 
  6 27  1  0  0  0  0 
  7 11  1  0  0  0  0 
  7 14  2  0  0  0  0 
  8 15  1  0  0  0  0 
  8 13  1  0  0  0  0 
  9 14  1  0  0  0  0 
  9 16  1  1  0  0  0 
 11  3  1  0  0  0  0 
 12  8  2  0  0  0  0 
 13  7  1  0  0  0  0 
 15  9  1  0  0  0  0 
 16  6  1  0  0  0  0 
 18  1  1  0  0  0  0 
 20  2  1  0  0  0  0 
 21  2  1  0  0  0  0 
 23  3  1  0  0  0  0 
 25  4  1  0  0  0  0 
 28  6  1  0  0  0  0 
 29 13  1  0  0  0  0 
 30 15  1  0  0  0  0 
M  RAD  2   9   2  11   2 
M  END 
>  <HBA> 
7 
 
>  <HBD> 
2 
 
>  <TPSA> 
111.82 
 
>  <cid> 
35132 
 
>  <dipole> 
2.93 
 
>  <excitation_energy_1> 
4.672 
 
>  <excitation_energy_2> 
4.732 
 
>  <excitation_energy_3> 
4.847 
 
>  <excitation_energy_4> 
4.919 
 
>  <homo_energy> 
-6.406 
 
>  <homo_lumo_gap> 
5.339 
 
>  <logP> 
1.497 
 
>  <lumo_energy> 
-1.067 
 
>  <melting_point> 
165.67 
 
>  <molecular_refractivity> 
64.33 
 
>  <oscillator_strength_1> 
0.0623 
 
>  <oscillator_strength_2> 
0.0004 
 
>  <oscillator_strength_3> 
0.0036 
 
>  <oscillator_strength_4> 
0.1246 
 
>  <open_babel_can_smiles> 
N#CCS[C]1N/C(=N/CC)/NC(=N1)[N]CC 
 
>  <mulliken_charges> 
30 
1   -0.43437 
2   -0.435194 
3   -0.138963 
4   -0.154338 
5   0.372322 
6   -0.478558 
7   0.660388 
8   0.768313 
9   0.334685 
10   -0.453898 
11   -0.484052 
12   -0.501944 
13   -0.7188 
14   -0.521651 
15   -0.673191 
16   0.20621 
17   0.137969 
18   0.154847 
19   0.143921 
20   0.138459 
21   0.154895 
22   0.154921 
23   0.142183 
24   0.136996 
25   0.134477 
26   0.134884 
27   0.248499 
28   0.251915 
29   0.354477 
30   0.364596 
 
>  <lowdin_charges> 
30 
1   -0.445455 
2   -0.443564 
3   -0.195524 
4   -0.201692 
5   -0.019737 
6   -0.355178 
7   0.123867 
8   0.134354 
9   0.007773 
10   -0.09593 
11   -0.229081 
12   -0.262614 
13   -0.251604 
14   -0.245168 
15   -0.227475 
16   0.210152 
17   0.149291 
18   0.153158 
19   0.148588 
20   0.148743 
21   0.156 
22   0.15539 
23   0.144934 
24   0.133384 
25   0.133443 
26   0.134268 
27   0.208867 
28   0.210756 
29   0.305325 
30   0.314732 
 
$$$$ 
 
