PCCDB-ID:  8499 
public computational chemistry database (PCCDB) project, http://pccdb.org 
 
 22 22  0  0  0  0  0  0  0  0999 V2000 
    2.3611   -1.4851   -0.4603 C   0  0  0  0  0  0  0  0  0  0  0  0 
    6.9347    0.1861    6.4154 C   0  0  0  0  0  0  0  0  0  0  0  0 
    4.0761    1.6111    2.7895 C   0  0  0  0  0  0  0  0  0  0  0  0 
    4.6764   -0.7207    2.9949 C   0  0  0  0  0  0  0  0  0  0  0  0 
    3.3277    1.3253    1.6606 C   0  0  0  0  0  0  0  0  0  0  0  0 
    3.9264   -1.0211    1.8588 C   0  0  0  0  0  0  0  0  0  0  0  0 
    4.7609    0.5914    3.4732 C   0  0  0  0  0  0  0  0  0  0  0  0 
    3.2473    0.0046    1.1860 C   0  0  0  0  0  0  0  0  0  0  0  0 
    5.5458    0.9601    4.6769 C   0  0  0  0  0  0  0  0  0  0  0  0 
    5.6430    2.0883    5.1223 O   0  0  0  0  0  0  0  0  0  0  0  0 
    2.4880   -0.1741    0.0721 O   0  0  0  0  0  0  0  0  0  0  0  0 
    6.1585   -0.1085    5.2462 O   0  0  0  0  0  0  0  0  0  0  0  0 
    1.7149   -1.3900   -1.3345 H   0  0  0  0  0  0  0  0  0  0  0  0 
    1.8972   -2.1692    0.2619 H   0  0  0  0  0  0  0  0  0  0  0  0 
    3.3336   -1.8894   -0.7693 H   0  0  0  0  0  0  0  0  0  0  0  0 
    7.3574   -0.7675    6.7342 H   0  0  0  0  0  0  0  0  0  0  0  0 
    6.3029    0.6079    7.2020 H   0  0  0  0  0  0  0  0  0  0  0  0 
    7.7295    0.8997    6.1816 H   0  0  0  0  0  0  0  0  0  0  0  0 
    4.1460    2.6260    3.1666 H   0  0  0  0  0  0  0  0  0  0  0  0 
    5.2012   -1.5141    3.5154 H   0  0  0  0  0  0  0  0  0  0  0  0 
    2.7933    2.1020    1.1230 H   0  0  0  0  0  0  0  0  0  0  0  0 
    3.8766   -2.0459    1.5095 H   0  0  0  0  0  0  0  0  0  0  0  0 
  1 11  1  0  0  0  0 
  1 14  1  0  0  0  0 
  2 16  1  0  0  0  0 
  2 17  1  0  0  0  0 
  3 19  1  0  0  0  0 
  3  7  2  0  0  0  0 
  4  7  1  0  0  0  0 
  4 20  1  0  0  0  0 
  5  3  1  0  0  0  0 
  6  4  2  0  0  0  0 
  7  9  1  0  0  0  0 
  8  5  2  0  0  0  0 
  8  6  1  0  0  0  0 
  9 10  2  0  0  0  0 
  9 12  1  0  0  0  0 
 11  8  1  0  0  0  0 
 12  2  1  0  0  0  0 
 13  1  1  0  0  0  0 
 15  1  1  0  0  0  0 
 18  2  1  0  0  0  0 
 21  5  1  0  0  0  0 
 22  6  1  0  0  0  0 
M  END 
>  <HBA> 
3 
 
>  <HBD> 
0 
 
>  <TPSA> 
35.53 
 
>  <cid> 
8499 
 
>  <dipole> 
3.48 
 
>  <excitation_energy_1> 
4.915 
 
>  <excitation_energy_2> 
4.918 
 
>  <excitation_energy_3> 
5.001 
 
>  <excitation_energy_4> 
5.726 
 
>  <homo_energy> 
-6.199 
 
>  <homo_lumo_gap> 
5.309 
 
>  <logP> 
1.482 
 
>  <lumo_energy> 
-0.89 
 
>  <melting_point> 
35.37 
 
>  <molecular_refractivity> 
44.21 
 
>  <oscillator_strength_1> 
0.2818 
 
>  <oscillator_strength_2> 
0.1234 
 
>  <oscillator_strength_3> 
0.0001 
 
>  <oscillator_strength_4> 
0.0064 
 
>  <open_babel_can_smiles> 
COc1ccc(cc1)C(=O)OC 
 
>  <mulliken_charges> 
22 
1   -0.218501 
2   -0.213974 
3   -0.157807 
4   -0.169963 
5   -0.180619 
6   -0.202061 
7   0.050945 
8   0.387517 
9   0.586784 
10   -0.497582 
11   -0.500994 
12   -0.471408 
13   0.174392 
14   0.156522 
15   0.156505 
16   0.160342 
17   0.16941 
18   0.169796 
19   0.163506 
20   0.156481 
21   0.144739 
22   0.135971 
 
>  <lowdin_charges> 
22 
1   -0.278958 
2   -0.278987 
3   -0.120515 
4   -0.128771 
5   -0.183838 
6   -0.216399 
7   -0.066175 
8   0.116072 
9   0.19342 
10   -0.275911 
11   -0.190043 
12   -0.196251 
13   0.16568 
14   0.149416 
15   0.147996 
16   0.158269 
17   0.159919 
18   0.159641 
19   0.177157 
20   0.173525 
21   0.171267 
22   0.163488 
 
$$$$ 
 
