PCCDB-ID:  15271 
public computational chemistry database (PCCDB) project, http://pccdb.org 
 
 23 22  0  0  1  0  0  0  0  0999 V2000 
    0.9710    0.9726   -0.7742 C   0  0  0  0  0  0  0  0  0  0  0  0 
    1.7195   -1.9834   -1.5012 C   0  0  0  0  0  0  0  0  0  0  0  0 
    2.3415    0.4790   -1.2517 C   0  0  0  0  0  0  0  0  0  0  0  0 
    4.1552   -1.2727   -1.2125 C   0  0  0  0  0  0  0  0  0  0  0  0 
    4.6790   -2.6112   -0.6851 C   0  0  0  0  0  0  0  0  0  0  0  0 
    2.6845   -0.9737   -0.8589 C   0  0  2  0  0  0  0  0  0  0  0  0 
    6.1726   -2.7996   -0.9290 C   0  0  0  0  0  0  0  0  0  0  0  0 
    6.8986   -1.9870   -1.4421 O   0  0  0  0  0  0  0  0  0  0  0  0 
    6.6808   -3.9957   -0.5127 O   0  0  0  0  0  0  0  0  0  0  0  0 
    0.8312    2.0307   -1.0228 H   0  0  0  0  0  0  0  0  0  0  0  0 
    0.8713    0.8726    0.3140 H   0  0  0  0  0  0  0  0  0  0  0  0 
    0.1470    0.4178   -1.2359 H   0  0  0  0  0  0  0  0  0  0  0  0 
    0.6799   -1.7808   -1.2248 H   0  0  0  0  0  0  0  0  0  0  0  0 
    1.9364   -3.0123   -1.1926 H   0  0  0  0  0  0  0  0  0  0  0  0 
    1.7875   -1.9427   -2.5965 H   0  0  0  0  0  0  0  0  0  0  0  0 
    3.1169    1.1403   -0.8418 H   0  0  0  0  0  0  0  0  0  0  0  0 
    2.4066    0.5778   -2.3454 H   0  0  0  0  0  0  0  0  0  0  0  0 
    4.2872   -1.2429   -2.3021 H   0  0  0  0  0  0  0  0  0  0  0  0 
    4.7960   -0.4779   -0.8135 H   0  0  0  0  0  0  0  0  0  0  0  0 
    4.1511   -3.4581   -1.1449 H   0  0  0  0  0  0  0  0  0  0  0  0 
    4.4989   -2.6942    0.3980 H   0  0  0  0  0  0  0  0  0  0  0  0 
    2.5794   -1.0519    0.2361 H   0  0  0  0  0  0  0  0  0  0  0  0 
    5.9746   -4.5386   -0.1245 H   0  0  0  0  0  0  0  0  0  0  0  0 
  1 11  1  0  0  0  0 
  2 13  1  0  0  0  0 
  2 14  1  0  0  0  0 
  2  6  1  0  0  0  0 
  3  6  1  0  0  0  0 
  3 16  1  0  0  0  0 
  3  1  1  0  0  0  0 
  4  6  1  0  0  0  0 
  4 19  1  0  0  0  0 
  4  5  1  0  0  0  0 
  5 21  1  0  0  0  0 
  6 22  1  1  0  0  0 
  7  5  1  0  0  0  0 
  7  9  1  0  0  0  0 
  8  7  2  0  0  0  0 
  9 23  1  0  0  0  0 
 10  1  1  0  0  0  0 
 12  1  1  0  0  0  0 
 15  2  1  0  0  0  0 
 17  3  1  0  0  0  0 
 18  4  1  0  0  0  0 
 20  5  1  0  0  0  0 
M  END 
>  <HBA> 
2 
 
>  <HBD> 
1 
 
>  <TPSA> 
37.3 
 
>  <cid> 
15271 
 
>  <dipole> 
4.16 
 
>  <excitation_energy_1> 
5.744 
 
>  <excitation_energy_2> 
6.393 
 
>  <excitation_energy_3> 
7.333 
 
>  <excitation_energy_4> 
7.425 
 
>  <homo_energy> 
-7.35 
 
>  <homo_lumo_gap> 
7.687 
 
>  <logP> 
1.897 
 
>  <lumo_energy> 
0.337 
 
>  <melting_point> 
49.93 
 
>  <molecular_refractivity> 
37.53 
 
>  <oscillator_strength_1> 
0.0003 
 
>  <oscillator_strength_2> 
0.0152 
 
>  <oscillator_strength_3> 
0.0059 
 
>  <oscillator_strength_4> 
0.004 
 
>  <open_babel_can_smiles> 
C[C@H](CC)CCC(=O)O 
 
>  <mulliken_charges> 
23 
1   -0.449523 
2   -0.455391 
3   -0.248612 
4   -0.247695 
5   -0.413894 
6   -0.070163 
7   0.609092 
8   -0.436799 
9   -0.569913 
10   0.145834 
11   0.141031 
12   0.146143 
13   0.150267 
14   0.136492 
15   0.142967 
16   0.133969 
17   0.131517 
18   0.148304 
19   0.156812 
20   0.164343 
21   0.163802 
22   0.11419 
23   0.407225 
 
>  <lowdin_charges> 
23 
1   -0.444567 
2   -0.445183 
3   -0.272004 
4   -0.269697 
5   -0.324117 
6   -0.122205 
7   0.198731 
8   -0.236998 
9   -0.364583 
10   0.150898 
11   0.144246 
12   0.148456 
13   0.151517 
14   0.143454 
15   0.145644 
16   0.144219 
17   0.138357 
18   0.149297 
19   0.157785 
20   0.160728 
21   0.158971 
22   0.129267 
23   0.357786 
 
$$$$ 
 
