PCCDB-ID:  19243 
public computational chemistry database (PCCDB) project, http://pccdb.org 
 
 31 31  0  0  1  0  0  0  0  0999 V2000 
    5.5691    2.3343    0.9152 C   0  0  0  0  0  0  0  0  0  0  0  0 
    5.0262    0.3162   -0.4770 C   0  0  0  0  0  0  0  0  0  0  0  0 
    2.1963    5.2215    2.9532 C   0  0  0  0  0  0  0  0  0  0  0  0 
    2.6570    2.7166    3.0237 C   0  0  0  0  0  0  0  0  0  0  0  0 
    2.5113    1.3812    2.2791 C   0  0  0  0  0  0  0  0  0  0  0  0 
    2.6494    3.9229    0.8161 C   0  0  0  0  0  0  0  0  0  0  0  0 
    4.6420    1.1132    0.7846 C   0  0  0  0  0  0  0  0  0  0  0  0 
    2.0397    3.8798    2.2287 C   0  0  2  0  0  0  0  0  0  0  0  0 
    3.0974    1.3657    0.8427 C   0  0  2  0  0  0  0  0  0  0  0  0 
    2.5256    2.5806    0.0763 C   0  0  2  0  0  0  0  0  0  0  0  0 
    3.1277    2.6398   -1.2198 O   0  0  0  0  0  0  0  0  0  0  0  0 
    6.6139    2.0005    0.9410 H   0  0  0  0  0  0  0  0  0  0  0  0 
    5.3920    2.9091    1.8296 H   0  0  0  0  0  0  0  0  0  0  0  0 
    5.4573    3.0042    0.0571 H   0  0  0  0  0  0  0  0  0  0  0  0 
    6.0887    0.0435   -0.4523 H   0  0  0  0  0  0  0  0  0  0  0  0 
    4.8400    0.9025   -1.3807 H   0  0  0  0  0  0  0  0  0  0  0  0 
    4.4472   -0.6125   -0.5512 H   0  0  0  0  0  0  0  0  0  0  0  0 
    1.7294    6.0380    2.3890 H   0  0  0  0  0  0  0  0  0  0  0  0 
    3.2560    5.4736    3.0876 H   0  0  0  0  0  0  0  0  0  0  0  0 
    1.7326    5.1926    3.9466 H   0  0  0  0  0  0  0  0  0  0  0  0 
    3.7159    2.9333    3.2199 H   0  0  0  0  0  0  0  0  0  0  0  0 
    2.1726    2.6422    4.0068 H   0  0  0  0  0  0  0  0  0  0  0  0 
    1.4383    1.1466    2.2144 H   0  0  0  0  0  0  0  0  0  0  0  0 
    2.9639    0.5693    2.8619 H   0  0  0  0  0  0  0  0  0  0  0  0 
    3.7024    4.2174    0.8790 H   0  0  0  0  0  0  0  0  0  0  0  0 
    2.1435    4.6984    0.2194 H   0  0  0  0  0  0  0  0  0  0  0  0 
    4.8553    0.4590    1.6442 H   0  0  0  0  0  0  0  0  0  0  0  0 
    0.9618    3.6736    2.1251 H   0  0  0  0  0  0  0  0  0  0  0  0 
    2.6604    0.4840    0.3540 H   0  0  0  0  0  0  0  0  0  0  0  0 
    1.4444    2.3808   -0.0385 H   0  0  0  0  0  0  0  0  0  0  0  0 
    2.7396    3.3979   -1.6846 H   0  0  0  0  0  0  0  0  0  0  0  0 
  1 12  1  0  0  0  0 
  1 13  1  0  0  0  0 
  2 15  1  0  0  0  0 
  2  7  1  0  0  0  0 
  3 19  1  0  0  0  0 
  3 20  1  0  0  0  0 
  4 21  1  0  0  0  0 
  4 22  1  0  0  0  0 
  5 24  1  0  0  0  0 
  5  4  1  0  0  0  0 
  6 25  1  0  0  0  0 
  6  8  1  0  0  0  0 
  7  9  1  0  0  0  0 
  7  1  1  0  0  0  0 
  7 27  1  0  0  0  0 
  8 28  1  6  0  0  0 
  8  3  1  0  0  0  0 
  8  4  1  0  0  0  0 
  9 29  1  6  0  0  0 
  9  5  1  0  0  0  0 
 10 30  1  6  0  0  0 
 10  6  1  0  0  0  0 
 10  9  1  0  0  0  0 
 11 10  1  0  0  0  0 
 14  1  1  0  0  0  0 
 16  2  1  0  0  0  0 
 17  2  1  0  0  0  0 
 18  3  1  0  0  0  0 
 23  5  1  0  0  0  0 
 26  6  1  0  0  0  0 
 31 11  1  0  0  0  0 
M  END 
>  <HBA> 
1 
 
>  <HBD> 
1 
 
>  <TPSA> 
20.23 
 
>  <cid> 
19243 
 
>  <dipole> 
1.61 
 
>  <excitation_energy_1> 
6.19 
 
>  <excitation_energy_2> 
6.789 
 
>  <excitation_energy_3> 
6.965 
 
>  <excitation_energy_4> 
7.026 
 
>  <homo_energy> 
-6.972 
 
>  <homo_lumo_gap> 
8.814 
 
>  <logP> 
2.439 
 
>  <lumo_energy> 
1.842 
 
>  <melting_point> 
11.98 
 
>  <molecular_refractivity> 
49.23 
 
>  <oscillator_strength_1> 
0.008 
 
>  <oscillator_strength_2> 
0.013 
 
>  <oscillator_strength_3> 
0.0126 
 
>  <oscillator_strength_4> 
0.0174 
 
>  <open_babel_can_smiles> 
C[C@@H]1CC[C@@H]([C@@H](C1)O)C(C)C 
 
>  <mulliken_charges> 
31 
1   -0.458818 
2   -0.453106 
3   -0.445222 
4   -0.257969 
5   -0.286574 
6   -0.287861 
7   -0.060836 
8   -0.077213 
9   -0.093916 
10   0.144617 
11   -0.632273 
12   0.133609 
13   0.137414 
14   0.160306 
15   0.127533 
16   0.174622 
17   0.129718 
18   0.138786 
19   0.140318 
20   0.140846 
21   0.13578 
22   0.12771 
23   0.126045 
24   0.132771 
25   0.146099 
26   0.11152 
27   0.114274 
28   0.115998 
29   0.126066 
30   0.103249 
31   0.386505 
 
>  <lowdin_charges> 
31 
1   -0.452462 
2   -0.44868 
3   -0.441873 
4   -0.278748 
5   -0.278482 
6   -0.300055 
7   -0.118104 
8   -0.122654 
9   -0.138535 
10   -0.001311 
11   -0.464928 
12   0.144653 
13   0.141831 
14   0.154446 
15   0.139632 
16   0.162103 
17   0.141494 
18   0.148418 
19   0.144962 
20   0.147963 
21   0.138767 
22   0.142277 
23   0.136571 
24   0.145653 
25   0.149483 
26   0.135301 
27   0.134345 
28   0.130216 
29   0.147218 
30   0.118917 
31   0.341583 
 
$$$$ 
 
