PCCDB-ID:  39217 
public computational chemistry database (PCCDB) project, http://pccdb.org 
 
 29 29  0  0  0  0  0  0  0  0999 V2000 
   -0.2907   -1.1497    2.8845 C   0  0  0  0  0  0  0  0  0  0  0  0 
    3.1372   -4.6144    0.6453 C   0  0  0  0  0  0  0  0  0  0  0  0 
    1.0396   -4.9707   -0.7504 C   0  0  0  0  0  0  0  0  0  0  0  0 
    3.2832   -4.9235   -1.8391 C   0  0  0  0  0  0  0  0  0  0  0  0 
    2.0125    0.5375    0.3631 C   0  0  0  0  0  0  0  0  0  0  0  0 
    1.1442    0.3566    1.4431 C   0  0  0  0  0  0  0  0  0  0  0  0 
    2.4152   -0.5400   -0.4132 C   0  0  0  0  0  0  0  0  0  0  0  0 
    1.0761   -2.0102    0.9511 C   0  0  0  0  0  0  0  0  0  0  0  0 
    0.6713   -0.9242    1.7391 C   0  0  0  0  0  0  0  0  0  0  0  0 
    1.9528   -1.8461   -0.1365 C   0  0  0  0  0  0  0  0  0  0  0  0 
    2.4391   -4.3223   -0.6997 C   0  0  0  0  0  0  0  0  0  0  0  0 
    2.3567   -2.8741   -0.9896 N   0  0  0  0  0  0  0  0  0  0  0  0 
   -0.3546   -0.2686    3.5310 H   0  0  0  0  0  0  0  0  0  0  0  0 
    0.0132   -2.0011    3.5053 H   0  0  0  0  0  0  0  0  0  0  0  0 
   -1.3036   -1.3646    2.5189 H   0  0  0  0  0  0  0  0  0  0  0  0 
    3.2003   -5.6952    0.8176 H   0  0  0  0  0  0  0  0  0  0  0  0 
    2.6032   -4.1690    1.4888 H   0  0  0  0  0  0  0  0  0  0  0  0 
    4.1554   -4.2090    0.6434 H   0  0  0  0  0  0  0  0  0  0  0  0 
    1.1231   -6.0583   -0.6413 H   0  0  0  0  0  0  0  0  0  0  0  0 
    0.5589   -4.7529   -1.7095 H   0  0  0  0  0  0  0  0  0  0  0  0 
    0.3798   -4.6100    0.0425 H   0  0  0  0  0  0  0  0  0  0  0  0 
    3.3641   -6.0090   -1.7261 H   0  0  0  0  0  0  0  0  0  0  0  0 
    4.3004   -4.5111   -1.8363 H   0  0  0  0  0  0  0  0  0  0  0  0 
    2.8268   -4.7135   -2.8134 H   0  0  0  0  0  0  0  0  0  0  0  0 
    2.3880    1.5309    0.1297 H   0  0  0  0  0  0  0  0  0  0  0  0 
    0.8366    1.2047    2.0489 H   0  0  0  0  0  0  0  0  0  0  0  0 
    3.0962   -0.3833   -1.2481 H   0  0  0  0  0  0  0  0  0  0  0  0 
    0.6889   -2.9919    1.1958 H   0  0  0  0  0  0  0  0  0  0  0  0 
    3.0932   -2.5709   -1.6138 H   0  0  0  0  0  0  0  0  0  0  0  0 
  1 14  1  0  0  0  0 
  1 13  1  0  0  0  0 
  2 16  1  0  0  0  0 
  2 17  1  0  0  0  0 
  3 11  1  0  0  0  0 
  3 19  1  0  0  0  0 
  3 21  1  0  0  0  0 
  4 23  1  0  0  0  0 
  4 22  1  0  0  0  0 
  4 11  1  0  0  0  0 
  5  6  2  0  0  0  0 
  6  9  1  0  0  0  0 
  6 26  1  0  0  0  0 
  7 10  2  0  0  0  0 
  7  5  1  0  0  0  0 
  8 28  1  0  0  0  0 
  8  9  2  0  0  0  0 
  9  1  1  0  0  0  0 
 10  8  1  0  0  0  0 
 11  2  1  0  0  0  0 
 12 11  1  0  0  0  0 
 12 10  1  0  0  0  0 
 15  1  1  0  0  0  0 
 18  2  1  0  0  0  0 
 20  3  1  0  0  0  0 
 24  4  1  0  0  0  0 
 25  5  1  0  0  0  0 
 27  7  1  0  0  0  0 
 29 12  1  0  0  0  0 
M  END 
>  <HBA> 
1 
 
>  <HBD> 
1 
 
>  <TPSA> 
12.03 
 
>  <cid> 
39217 
 
>  <dipole> 
1.71 
 
>  <excitation_energy_1> 
4.455 
 
>  <excitation_energy_2> 
4.558 
 
>  <excitation_energy_3> 
5.045 
 
>  <excitation_energy_4> 
5.101 
 
>  <homo_energy> 
-5.031 
 
>  <homo_lumo_gap> 
5.366 
 
>  <logP> 
3.278 
 
>  <lumo_energy> 
0.335 
 
>  <melting_point> 
51.74 
 
>  <molecular_refractivity> 
55.17 
 
>  <oscillator_strength_1> 
0.0268 
 
>  <oscillator_strength_2> 
0.0097 
 
>  <oscillator_strength_3> 
0.0092 
 
>  <oscillator_strength_4> 
0.0341 
 
>  <open_babel_can_smiles> 
Cc1cccc(c1)NC(C)(C)C 
 
>  <mulliken_charges> 
29 
1   -0.529251 
2   -0.443663 
3   -0.43954 
4   -0.474537 
5   -0.128048 
6   -0.197092 
7   -0.205078 
8   -0.235254 
9   0.174836 
10   0.376355 
11   0.231777 
12   -0.689015 
13   0.152507 
14   0.153436 
15   0.160728 
16   0.138213 
17   0.156423 
18   0.141572 
19   0.136973 
20   0.152055 
21   0.155337 
22   0.152778 
23   0.141472 
24   0.153898 
25   0.120559 
26   0.110253 
27   0.107966 
28   0.113796 
29   0.310544 
 
>  <lowdin_charges> 
29 
1   -0.442386 
2   -0.452588 
3   -0.447275 
4   -0.444234 
5   -0.146301 
6   -0.205368 
7   -0.207801 
8   -0.223963 
9   0.011712 
10   0.065696 
11   0.081872 
12   -0.301702 
13   0.155813 
14   0.156468 
15   0.15845 
16   0.147877 
17   0.158528 
18   0.14955 
19   0.146346 
20   0.155841 
21   0.153532 
22   0.155266 
23   0.146277 
24   0.15347 
25   0.153621 
26   0.15117 
27   0.147536 
28   0.151754 
29   0.270842 
 
$$$$ 
 
