PCCDB-ID:  28391 
public computational chemistry database (PCCDB) project, http://pccdb.org 
 
 33 35  0  0  1  0  0  0  0  0999 V2000 
    3.1810    4.0826    1.8344 C   0  0  0  0  0  0  0  0  0  0  0  0 
    6.3836    1.2129   -3.3369 C   0  0  0  0  0  0  0  0  0  0  0  0 
    3.2888    4.0142    0.4438 C   0  0  0  0  0  0  0  0  0  0  0  0 
    2.7949    2.9489    2.5506 C   0  0  0  0  0  0  0  0  0  0  0  0 
    5.1029    0.8086   -3.7228 C   0  0  0  0  0  0  0  0  0  0  0  0 
    6.7799    1.0577   -2.0097 C   0  0  0  0  0  0  0  0  0  0  0  0 
    3.0196    2.8201   -0.2256 C   0  0  0  0  0  0  0  0  0  0  0  0 
    2.5204    1.7553    1.8774 C   0  0  0  0  0  0  0  0  0  0  0  0 
    4.2297    0.2612   -2.7848 C   0  0  0  0  0  0  0  0  0  0  0  0 
    5.9026    0.5087   -1.0708 C   0  0  0  0  0  0  0  0  0  0  0  0 
    2.3655    0.3600   -0.2351 C   0  0  0  0  0  0  0  0  0  0  0  0 
    3.3587   -2.0440   -0.6569 C   0  0  0  0  0  0  0  0  0  0  0  0 
    2.6325    1.6710    0.4798 C   0  0  0  0  0  0  0  0  0  0  0  0 
    4.6138    0.1063   -1.4427 C   0  0  0  0  0  0  0  0  0  0  0  0 
    4.2155   -1.0876    0.8280 C   0  0  0  0  0  0  0  0  0  0  0  0 
    3.6379   -0.5064   -0.4521 C   0  0  1  0  0  0  0  0  0  0  0  0 
    3.9830   -2.3404    0.6727 N   0  0  0  0  0  0  0  0  0  0  0  0 
    4.8160   -0.5128    1.8888 O   0  0  0  0  0  0  0  0  0  0  0  0 
    3.3905    5.0131    2.3547 H   0  0  0  0  0  0  0  0  0  0  0  0 
    7.0659    1.6395   -4.0671 H   0  0  0  0  0  0  0  0  0  0  0  0 
    3.5824    4.8935   -0.1232 H   0  0  0  0  0  0  0  0  0  0  0  0 
    2.6973    2.9921    3.6322 H   0  0  0  0  0  0  0  0  0  0  0  0 
    4.7860    0.9137   -4.7572 H   0  0  0  0  0  0  0  0  0  0  0  0 
    7.7754    1.3620   -1.6977 H   0  0  0  0  0  0  0  0  0  0  0  0 
    3.1098    2.7771   -1.3074 H   0  0  0  0  0  0  0  0  0  0  0  0 
    2.2003    0.8819    2.4422 H   0  0  0  0  0  0  0  0  0  0  0  0 
    3.2401   -0.0611   -3.1017 H   0  0  0  0  0  0  0  0  0  0  0  0 
    6.2336    0.3822   -0.0446 H   0  0  0  0  0  0  0  0  0  0  0  0 
    1.9033    0.5534   -1.2102 H   0  0  0  0  0  0  0  0  0  0  0  0 
    1.6481   -0.2317    0.3463 H   0  0  0  0  0  0  0  0  0  0  0  0 
    3.8981   -2.4986   -1.4935 H   0  0  0  0  0  0  0  0  0  0  0  0 
    2.3003   -2.3261   -0.6993 H   0  0  0  0  0  0  0  0  0  0  0  0 
    4.6544    0.4461    1.8490 H   0  0  0  0  0  0  0  0  0  0  0  0 
  1 19  1  0  0  0  0 
  1  4  2  0  0  0  0 
  2  6  1  0  0  0  0 
  3  1  1  0  0  0  0 
  4 22  1  0  0  0  0 
  5  2  2  0  0  0  0 
  5  9  1  0  0  0  0 
  6 24  1  0  0  0  0 
  6 10  2  0  0  0  0 
  7  3  2  0  0  0  0 
  7 13  1  0  0  0  0 
  8 26  1  0  0  0  0 
  8  4  1  0  0  0  0 
  9 14  2  0  0  0  0 
 10 28  1  0  0  0  0 
 11 30  1  0  0  0  0 
 11 13  1  0  0  0  0 
 12 16  1  0  0  0  0 
 12 17  1  0  0  0  0 
 13  8  2  0  0  0  0 
 14 10  1  0  0  0  0 
 14 16  1  0  0  0  0 
 15 18  1  0  0  0  0 
 16 11  1  1  0  0  0 
 16 15  1  0  0  0  0 
 17 15  2  0  0  0  0 
 20  2  1  0  0  0  0 
 21  3  1  0  0  0  0 
 23  5  1  0  0  0  0 
 25  7  1  0  0  0  0 
 27  9  1  0  0  0  0 
 29 11  1  0  0  0  0 
 31 12  1  0  0  0  0 
 32 12  1  0  0  0  0 
 33 18  1  0  0  0  0 
M  END 
>  <HBA> 
2 
 
>  <HBD> 
1 
 
>  <TPSA> 
29.1 
 
>  <cid> 
28391 
 
>  <dipole> 
4.45 
 
>  <excitation_energy_1> 
5.178 
 
>  <excitation_energy_2> 
5.208 
 
>  <excitation_energy_3> 
5.331 
 
>  <excitation_energy_4> 
5.431 
 
>  <homo_energy> 
-6.441 
 
>  <homo_lumo_gap> 
5.995 
 
>  <logP> 
2.626 
 
>  <lumo_energy> 
-0.446 
 
>  <melting_point> 
113.64 
 
>  <molecular_refractivity> 
75.0 
 
>  <oscillator_strength_1> 
0.0107 
 
>  <oscillator_strength_2> 
0.0018 
 
>  <oscillator_strength_3> 
0.0418 
 
>  <oscillator_strength_4> 
0.0202 
 
>  <open_babel_can_smiles> 
OC1=NC[C@]1(Cc1ccccc1)c1ccccc1 
 
>  <mulliken_charges> 
33 
1   -0.129991 
2   -0.12639 
3   -0.129447 
4   -0.126598 
5   -0.13343 
6   -0.133673 
7   -0.17191 
8   -0.22983 
9   -0.179369 
10   -0.185272 
11   -0.372278 
12   -0.146319 
13   0.154446 
14   0.153933 
15   0.506456 
16   -0.113847 
17   -0.432483 
18   -0.603154 
19   0.135197 
20   0.131902 
21   0.13631 
22   0.138665 
23   0.132558 
24   0.13458 
25   0.141776 
26   0.14659 
27   0.12867 
28   0.137526 
29   0.156675 
30   0.157085 
31   0.15547 
32   0.142338 
33   0.423816 
 
>  <lowdin_charges> 
33 
1   -0.158082 
2   -0.159492 
3   -0.151258 
4   -0.154613 
5   -0.15269 
6   -0.149971 
7   -0.158139 
8   -0.186909 
9   -0.168376 
10   -0.168832 
11   -0.27084 
12   -0.190453 
13   -0.013515 
14   -0.004545 
15   0.09636 
16   -0.021524 
17   -0.214132 
18   -0.347923 
19   0.160788 
20   0.16054 
21   0.161576 
22   0.159744 
23   0.157769 
24   0.159439 
25   0.162013 
26   0.16324 
27   0.154894 
28   0.160594 
29   0.156866 
30   0.159271 
31   0.152898 
32   0.142746 
33   0.362559 
 
$$$$ 
 
