PCCDB-ID:  58170 
public computational chemistry database (PCCDB) project, http://pccdb.org 
 
 25 27  0  0  1  0  0  0  0  0999 V2000 
    0.2417    1.8682    0.2912 C   0  0  0  0  0  0  0  0  0  0  0  0 
    3.0655   -2.7826   -0.1962 C   0  0  0  0  0  0  0  0  0  0  0  0 
    3.2015   -2.7204    1.3067 C   0  0  0  0  0  0  0  0  0  0  0  0 
    1.2156    1.0398   -0.5824 C   0  0  0  0  0  0  0  0  0  0  0  0 
   -1.5494    0.6340   -1.1135 C   0  0  0  0  0  0  0  0  0  0  0  0 
   -1.0725    1.0981    0.2405 C   0  0  1  0  0  0  0  0  0  0  0  0 
    2.7057   -1.5182    0.5456 C   0  0  0  0  0  0  0  0  0  0  0  0 
   -0.7693   -0.3135   -0.2343 C   0  0  2  0  0  0  0  0  0  0  0  0 
    0.7343   -0.4382   -0.4573 C   0  0  2  0  0  0  0  0  0  0  0  0 
    1.3072   -1.2008    0.6610 N   0  0  0  0  0  0  0  0  0  0  0  0 
    0.1529    2.9044   -0.0578 H   0  0  0  0  0  0  0  0  0  0  0  0 
    0.5962    1.9111    1.3301 H   0  0  0  0  0  0  0  0  0  0  0  0 
    2.2409   -3.3637   -0.5981 H   0  0  0  0  0  0  0  0  0  0  0  0 
    3.9688   -2.7885   -0.8000 H   0  0  0  0  0  0  0  0  0  0  0  0 
    4.1982   -2.6830    1.7380 H   0  0  0  0  0  0  0  0  0  0  0  0 
    2.4670   -3.2602    1.8968 H   0  0  0  0  0  0  0  0  0  0  0  0 
    2.2611    1.1608   -0.2808 H   0  0  0  0  0  0  0  0  0  0  0  0 
    1.1551    1.3640   -1.6278 H   0  0  0  0  0  0  0  0  0  0  0  0 
   -1.0879    1.0360   -2.0127 H   0  0  0  0  0  0  0  0  0  0  0  0 
   -2.6121    0.4345   -1.2227 H   0  0  0  0  0  0  0  0  0  0  0  0 
   -1.8158    1.2823    1.0123 H   0  0  0  0  0  0  0  0  0  0  0  0 
    3.4165   -0.6908    0.4433 H   0  0  0  0  0  0  0  0  0  0  0  0 
   -1.2758   -1.1789    0.1837 H   0  0  0  0  0  0  0  0  0  0  0  0 
    0.9745   -1.0007   -1.3682 H   0  0  0  0  0  0  0  0  0  0  0  0 
    1.1248   -0.7178    1.5401 H   0  0  0  0  0  0  0  0  0  0  0  0 
  1 12  1  0  0  0  0 
  2  7  1  0  0  0  0 
  2  3  1  0  0  0  0 
  3 15  1  0  0  0  0 
  3 16  1  0  0  0  0 
  4  9  1  0  0  0  0 
  4 17  1  0  0  0  0 
  4  1  1  0  0  0  0 
  5  8  1  0  0  0  0 
  5  6  1  0  0  0  0 
  6  1  1  0  0  0  0 
  6 21  1  1  0  0  0 
  7 10  1  0  0  0  0 
  7  3  1  0  0  0  0 
  8 23  1  1  0  0  0 
  8  6  1  0  0  0  0 
  9 24  1  6  0  0  0 
  9  8  1  0  0  0  0 
  9 10  1  0  0  0  0 
 10 25  1  0  0  0  0 
 11  1  1  0  0  0  0 
 13  2  1  0  0  0  0 
 14  2  1  0  0  0  0 
 18  4  1  0  0  0  0 
 19  5  1  0  0  0  0 
 20  5  1  0  0  0  0 
 22  7  1  0  0  0  0 
M  END 
>  <HBA> 
1 
 
>  <HBD> 
1 
 
>  <TPSA> 
12.03 
 
>  <cid> 
58170 
 
>  <dipole> 
0.89 
 
>  <excitation_energy_1> 
5.379 
 
>  <excitation_energy_2> 
5.666 
 
>  <excitation_energy_3> 
5.859 
 
>  <excitation_energy_4> 
6.099 
 
>  <homo_energy> 
-5.826 
 
>  <homo_lumo_gap> 
8.095 
 
>  <logP> 
1.928 
 
>  <lumo_energy> 
2.269 
 
>  <melting_point> 
66.36 
 
>  <molecular_refractivity> 
41.84 
 
>  <oscillator_strength_1> 
0.0027 
 
>  <oscillator_strength_2> 
0.0109 
 
>  <oscillator_strength_3> 
0.0253 
 
>  <oscillator_strength_4> 
0.0125 
 
>  <open_babel_can_smiles> 
C1CC1N[C@@H]1CC[C@@H]2[C@H]1C2 
 
>  <mulliken_charges> 
25 
1   -0.255343 
2   -0.30327 
3   -0.321369 
4   -0.3266 
5   -0.32343 
6   -0.123057 
7   0.030102 
8   -0.132648 
9   0.063048 
10   -0.574331 
11   0.137312 
12   0.128979 
13   0.158599 
14   0.144836 
15   0.145064 
16   0.157416 
17   0.141146 
18   0.139465 
19   0.144688 
20   0.146783 
21   0.132992 
22   0.122669 
23   0.142087 
24   0.13175 
25   0.293111 
 
>  <lowdin_charges> 
25 
1   -0.271844 
2   -0.320135 
3   -0.318611 
4   -0.302842 
5   -0.318311 
6   -0.164426 
7   -0.099654 
8   -0.169211 
9   -0.057562 
10   -0.344278 
11   0.144418 
12   0.138901 
13   0.164592 
14   0.155876 
15   0.155361 
16   0.164547 
17   0.147423 
18   0.144198 
19   0.154991 
20   0.15974 
21   0.152291 
22   0.129577 
23   0.158518 
24   0.142472 
25   0.253969 
 
$$$$ 
 
