PCCDB-ID:  66073 
public computational chemistry database (PCCDB) project, http://pccdb.org 
 
 21 20  0  0  0  0  0  0  0  0999 V2000 
    0.4552   -0.5248    0.9017 C   0  0  0  0  0  0  0  0  0  0  0  0 
    1.9703   -0.3878    1.0794 C   0  0  0  0  0  0  0  0  0  0  0  0 
    6.1576   -2.2344    2.9081 C   0  0  0  0  0  0  0  0  0  0  0  0 
    2.5678   -1.4828    1.9655 C   0  0  0  0  0  0  0  0  0  0  0  0 
    4.6322   -2.3238    2.9724 C   0  0  0  0  0  0  0  0  0  0  0  0 
    6.6045   -0.8614    3.1935 N   0  0  0  0  0  0  0  0  0  0  0  0 
    4.0190   -1.3426    2.0780 N   0  0  0  0  0  0  0  0  0  0  0  0 
    0.0557    0.2749    0.2682 H   0  0  0  0  0  0  0  0  0  0  0  0 
   -0.0661   -0.4773    1.8656 H   0  0  0  0  0  0  0  0  0  0  0  0 
    0.1956   -1.4815    0.4319 H   0  0  0  0  0  0  0  0  0  0  0  0 
    2.1991    0.5946    1.5185 H   0  0  0  0  0  0  0  0  0  0  0  0 
    2.4723   -0.4159    0.1043 H   0  0  0  0  0  0  0  0  0  0  0  0 
    6.4960   -2.6068    1.9268 H   0  0  0  0  0  0  0  0  0  0  0  0 
    6.5792   -2.8972    3.6731 H   0  0  0  0  0  0  0  0  0  0  0  0 
    2.3585   -2.4659    1.5205 H   0  0  0  0  0  0  0  0  0  0  0  0 
    2.0601   -1.4756    2.9514 H   0  0  0  0  0  0  0  0  0  0  0  0 
    4.3044   -2.2028    4.0219 H   0  0  0  0  0  0  0  0  0  0  0  0 
    4.3209   -3.3261    2.6495 H   0  0  0  0  0  0  0  0  0  0  0  0 
    6.5081   -0.3049    2.3453 H   0  0  0  0  0  0  0  0  0  0  0  0 
    7.5990   -0.8601    3.4109 H   0  0  0  0  0  0  0  0  0  0  0  0 
    4.2202   -0.4193    2.4628 H   0  0  0  0  0  0  0  0  0  0  0  0 
  1  2  1  0  0  0  0 
  1  9  1  0  0  0  0 
  2 11  1  0  0  0  0 
  2  4  1  0  0  0  0 
  3  5  1  0  0  0  0 
  3  6  1  0  0  0  0 
  3 14  1  0  0  0  0 
  4  7  1  0  0  0  0 
  4 16  1  0  0  0  0 
  5 17  1  0  0  0  0 
  6 20  1  0  0  0  0 
  7 21  1  0  0  0  0 
  7  5  1  0  0  0  0 
  8  1  1  0  0  0  0 
 10  1  1  0  0  0  0 
 12  2  1  0  0  0  0 
 13  3  1  0  0  0  0 
 15  4  1  0  0  0  0 
 18  5  1  0  0  0  0 
 19  6  1  0  0  0  0 
M  END 
>  <HBA> 
2 
 
>  <HBD> 
2 
 
>  <TPSA> 
38.05 
 
>  <cid> 
66073 
 
>  <dipole> 
0.63 
 
>  <excitation_energy_1> 
5.379 
 
>  <excitation_energy_2> 
5.796 
 
>  <excitation_energy_3> 
5.848 
 
>  <excitation_energy_4> 
5.949 
 
>  <homo_energy> 
-5.78 
 
>  <homo_lumo_gap> 
7.943 
 
>  <logP> 
1.036 
 
>  <lumo_energy> 
2.163 
 
>  <melting_point> 
55.53 
 
>  <molecular_refractivity> 
31.66 
 
>  <oscillator_strength_1> 
0.001 
 
>  <oscillator_strength_2> 
0.0088 
 
>  <oscillator_strength_3> 
0.0087 
 
>  <oscillator_strength_4> 
0.0476 
 
>  <open_babel_can_smiles> 
CCCNCCN 
 
>  <mulliken_charges> 
21 
1   -0.445214 
2   -0.259212 
3   -0.142936 
4   -0.099242 
5   -0.097259 
6   -0.728898 
7   -0.572645 
8   0.144307 
9   0.142748 
10   0.143192 
11   0.126435 
12   0.145504 
13   0.125221 
14   0.132891 
15   0.133036 
16   0.106694 
17   0.117213 
18   0.129102 
19   0.301481 
20   0.29906 
21   0.298524 
 
>  <lowdin_charges> 
21 
1   -0.445263 
2   -0.275983 
3   -0.210442 
4   -0.199173 
5   -0.203674 
6   -0.563539 
7   -0.370168 
8   0.152034 
9   0.146688 
10   0.147131 
11   0.136332 
12   0.146887 
13   0.125047 
14   0.143625 
15   0.137032 
16   0.11371 
17   0.119291 
18   0.139325 
19   0.254947 
20   0.254468 
21   0.251724 
 
$$$$ 
 
