PCCDB-ID:  15116 
public computational chemistry database (PCCDB) project, http://pccdb.org 
 
 14 14  0  0  0  0  0  0  0  0999 V2000 
    3.1888    1.3496   -0.2719 C   0  0  0  0  0  0  0  0  0  0  0  0 
    2.8710   -2.3942    0.8418 C   0  0  0  0  0  0  0  0  0  0  0  0 
    3.6218   -3.1165    1.7186 C   0  0  0  0  0  0  0  0  0  0  0  0 
    4.4168   -0.7737    1.4970 C   0  0  0  0  0  0  0  0  0  0  0  0 
    2.6484   -0.0690   -0.1995 C   0  0  0  0  0  0  0  0  0  0  0  0 
    3.3217   -1.0374    0.7056 C   0  0  0  0  0  0  0  0  0  0  0  0 
    1.6837   -0.4142   -0.8655 O   0  0  0  0  0  0  0  0  0  0  0  0 
    4.9047   -2.1585    2.4049 S   0  0  0  0  0  0  0  0  0  0  0  0 
    4.2329    1.3530   -0.6075 H   0  0  0  0  0  0  0  0  0  0  0  0 
    3.1584    1.8305    0.7132 H   0  0  0  0  0  0  0  0  0  0  0  0 
    2.5821    1.9244   -0.9737 H   0  0  0  0  0  0  0  0  0  0  0  0 
    2.0200   -2.7791    0.2936 H   0  0  0  0  0  0  0  0  0  0  0  0 
    3.5082   -4.1521    2.0100 H   0  0  0  0  0  0  0  0  0  0  0  0 
    4.9626    0.1546    1.5962 H   0  0  0  0  0  0  0  0  0  0  0  0 
  1  5  1  0  0  0  0 
  1 10  1  0  0  0  0 
  2  3  2  0  0  0  0 
  3 13  1  0  0  0  0 
  3  8  1  0  0  0  0 
  4 14  1  0  0  0  0 
  4  8  1  0  0  0  0 
  5  6  1  0  0  0  0 
  6  2  1  0  0  0  0 
  6  4  2  0  0  0  0 
  7  5  2  0  0  0  0 
  9  1  1  0  0  0  0 
 11  1  1  0  0  0  0 
 12  2  1  0  0  0  0 
M  END 
>  <HBA> 
2 
 
>  <HBD> 
0 
 
>  <TPSA> 
45.31 
 
>  <cid> 
15116 
 
>  <dipole> 
2.52 
 
>  <excitation_energy_1> 
3.854 
 
>  <excitation_energy_2> 
4.749 
 
>  <excitation_energy_3> 
5.207 
 
>  <excitation_energy_4> 
5.642 
 
>  <homo_energy> 
-6.773 
 
>  <homo_lumo_gap> 
5.377 
 
>  <logP> 
1.951 
 
>  <lumo_energy> 
-1.396 
 
>  <melting_point> 
37.44 
 
>  <molecular_refractivity> 
34.51 
 
>  <oscillator_strength_1> 
0.0003 
 
>  <oscillator_strength_2> 
0.0192 
 
>  <oscillator_strength_3> 
0.2283 
 
>  <oscillator_strength_4> 
0.0001 
 
>  <open_babel_can_smiles> 
CC(=O)c1cscc1 
 
>  <mulliken_charges> 
14 
1   -0.544618 
2   -0.093197 
3   -0.357095 
4   -0.403142 
5   0.410978 
6   0.102883 
7   -0.452309 
8   0.278496 
9   0.170103 
10   0.170092 
11   0.182934 
12   0.170706 
13   0.182488 
14   0.181683 
 
>  <lowdin_charges> 
14 
1   -0.47445 
2   -0.160139 
3   -0.314436 
4   -0.313531 
5   0.161965 
6   -0.069933 
7   -0.242083 
8   0.342509 
9   0.168484 
10   0.169152 
11   0.176962 
12   0.183717 
13   0.184825 
14   0.186957 
 
$$$$ 
 
