PCCDB-ID:  7863 
public computational chemistry database (PCCDB) project, http://pccdb.org 
 
  9  8  0  0  0  0  0  0  0  0999 V2000 
    0.9338    0.0102   -0.0359 C   0  0  0  0  0  0  0  0  0  0  0  0 
    2.4243    0.1409    0.0000 C   0  0  0  0  0  0  0  0  0  0  0  0 
    3.0348    0.1762    1.1201 N   0  0  0  0  0  0  0  0  0  0  0  0 
    4.4262    0.3027    0.9314 O   0  0  0  0  0  0  0  0  0  0  0  0 
    0.6345   -0.8869   -0.5929 H   0  0  0  0  0  0  0  0  0  0  0  0 
    0.4790    0.8702   -0.5444 H   0  0  0  0  0  0  0  0  0  0  0  0 
    0.5323   -0.0533    0.9788 H   0  0  0  0  0  0  0  0  0  0  0  0 
    2.9836    0.2065   -0.9378 H   0  0  0  0  0  0  0  0  0  0  0  0 
    4.7559    0.3165    1.8433 H   0  0  0  0  0  0  0  0  0  0  0  0 
  1  2  1  0  0  0  0 
  1  7  1  0  0  0  0 
  2  3  2  0  0  0  0 
  4  3  1  0  0  0  0 
  4  9  1  0  0  0  0 
  5  1  1  0  0  0  0 
  6  1  1  0  0  0  0 
  8  2  1  0  0  0  0 
M  END 
>  <HBA> 
2 
 
>  <HBD> 
1 
 
>  <TPSA> 
32.59 
 
>  <cid> 
7863 
 
>  <dipole> 
0.61 
 
>  <excitation_energy_1> 
6.098 
 
>  <excitation_energy_2> 
6.518 
 
>  <excitation_energy_3> 
6.553 
 
>  <excitation_energy_4> 
6.676 
 
>  <homo_energy> 
-6.768 
 
>  <homo_lumo_gap> 
7.031 
 
>  <logP> 
0.466 
 
>  <lumo_energy> 
0.264 
 
>  <melting_point> 
47.86 
 
>  <molecular_refractivity> 
16.14 
 
>  <oscillator_strength_1> 
0.0011 
 
>  <oscillator_strength_2> 
0.1734 
 
>  <oscillator_strength_3> 
0.0008 
 
>  <oscillator_strength_4> 
0.0001 
 
>  <open_babel_can_smiles> 
C/C=N/O 
 
>  <mulliken_charges> 
9 
1   -0.494023 
2   0.108154 
3   -0.165912 
4   -0.510299 
5   0.164229 
6   0.164557 
7   0.17635 
8   0.142697 
9   0.414246 
 
>  <lowdin_charges> 
9 
1   -0.442948 
2   -0.107474 
3   -0.060641 
4   -0.386069 
5   0.164085 
6   0.164581 
7   0.169103 
8   0.146975 
9   0.352387 
 
$$$$ 
 
