PCCDB-ID:  66761 
public computational chemistry database (PCCDB) project, http://pccdb.org 
 
 23 23  0  0  0  0  0  0  0  0999 V2000 
    0.9983    0.0053    0.2335 C   0  0  0  0  0  0  0  0  0  0  0  0 
    5.3008   -2.5818   -0.3111 C   0  0  0  0  0  0  0  0  0  0  0  0 
    3.2188    1.1957   -0.0484 C   0  0  0  0  0  0  0  0  0  0  0  0 
    4.6052    1.1691   -0.2049 C   0  0  0  0  0  0  0  0  0  0  0  0 
    3.2067   -1.2020   -0.0542 C   0  0  0  0  0  0  0  0  0  0  0  0 
    6.8178   -0.0085   -0.4336 C   0  0  0  0  0  0  0  0  0  0  0  0 
    2.4964    0.0032    0.0340 C   0  0  0  0  0  0  0  0  0  0  0  0 
    4.5946   -1.2496   -0.2116 C   0  0  0  0  0  0  0  0  0  0  0  0 
    5.3106   -0.0344   -0.2868 C   0  0  0  0  0  0  0  0  0  0  0  0 
    7.4776   -0.4617    0.8049 N   0  0  0  0  0  0  0  0  0  0  0  0 
    0.5461    0.9319   -0.1360 H   0  0  0  0  0  0  0  0  0  0  0  0 
    0.7365   -0.0831    1.2967 H   0  0  0  0  0  0  0  0  0  0  0  0 
    0.5223   -0.8338   -0.2859 H   0  0  0  0  0  0  0  0  0  0  0  0 
    4.6052   -3.4096   -0.1408 H   0  0  0  0  0  0  0  0  0  0  0  0 
    6.1167   -2.6439    0.4155 H   0  0  0  0  0  0  0  0  0  0  0  0 
    5.7461   -2.7251   -1.3056 H   0  0  0  0  0  0  0  0  0  0  0  0 
    2.6987    2.1495    0.0066 H   0  0  0  0  0  0  0  0  0  0  0  0 
    5.1525    2.1078   -0.2710 H   0  0  0  0  0  0  0  0  0  0  0  0 
    2.6567   -2.1403   -0.0004 H   0  0  0  0  0  0  0  0  0  0  0  0 
    7.1222    1.0038   -0.7512 H   0  0  0  0  0  0  0  0  0  0  0  0 
    7.1319   -0.6928   -1.2325 H   0  0  0  0  0  0  0  0  0  0  0  0 
    7.2416    0.1789    1.5616 H   0  0  0  0  0  0  0  0  0  0  0  0 
    8.4896   -0.4133    0.6899 H   0  0  0  0  0  0  0  0  0  0  0  0 
  1 12  1  0  0  0  0 
  2  8  1  0  0  0  0 
  2 14  1  0  0  0  0 
  2 15  1  0  0  0  0 
  3 17  1  0  0  0  0 
  3  7  1  0  0  0  0 
  4  3  2  0  0  0  0 
  5 19  1  0  0  0  0 
  5  7  2  0  0  0  0 
  6  9  1  0  0  0  0 
  6 10  1  0  0  0  0 
  7  1  1  0  0  0  0 
  8  5  1  0  0  0  0 
  9  8  2  0  0  0  0 
  9  4  1  0  0  0  0 
 10 22  1  0  0  0  0 
 11  1  1  0  0  0  0 
 13  1  1  0  0  0  0 
 16  2  1  0  0  0  0 
 18  4  1  0  0  0  0 
 20  6  1  0  0  0  0 
 21  6  1  0  0  0  0 
 23 10  1  0  0  0  0 
M  END 
>  <HBA> 
1 
 
>  <HBD> 
1 
 
>  <TPSA> 
26.02 
 
>  <cid> 
66761 
 
>  <dipole> 
1.12 
 
>  <excitation_energy_1> 
5.121 
 
>  <excitation_energy_2> 
5.42 
 
>  <excitation_energy_3> 
5.535 
 
>  <excitation_energy_4> 
5.777 
 
>  <homo_energy> 
-6.082 
 
>  <homo_lumo_gap> 
6.231 
 
>  <logP> 
2.462 
 
>  <lumo_energy> 
0.15 
 
>  <melting_point> 
71.08 
 
>  <molecular_refractivity> 
44.05 
 
>  <oscillator_strength_1> 
0.0019 
 
>  <oscillator_strength_2> 
0.0031 
 
>  <oscillator_strength_3> 
0.0865 
 
>  <oscillator_strength_4> 
0.0035 
 
>  <open_babel_can_smiles> 
NCc1ccc(cc1C)C 
 
>  <mulliken_charges> 
23 
1   -0.530247 
2   -0.541644 
3   -0.185227 
4   -0.187507 
5   -0.245845 
6   -0.225552 
7   0.189803 
8   0.153381 
9   0.113322 
10   -0.706048 
11   0.153679 
12   0.163342 
13   0.155953 
14   0.144953 
15   0.195317 
16   0.15044 
17   0.115515 
18   0.11632 
19   0.111507 
20   0.120849 
21   0.145833 
22   0.297041 
23   0.294816 
 
>  <lowdin_charges> 
23 
1   -0.442222 
2   -0.449584 
3   -0.177408 
4   -0.167434 
5   -0.179678 
6   -0.202589 
7   0.002214 
8   0.00836 
9   -0.026328 
10   -0.554133 
11   0.156513 
12   0.159144 
13   0.158255 
14   0.152724 
15   0.176861 
16   0.154089 
17   0.151807 
18   0.150787 
19   0.149845 
20   0.124001 
21   0.148314 
22   0.255306 
23   0.251157 
 
$$$$ 
 
