PCCDB-ID:  13860 
public computational chemistry database (PCCDB) project, http://pccdb.org 
 
 23 23  0  0  0  0  0  0  0  0999 V2000 
    0.9223    0.1559   -0.1484 C   0  0  0  0  0  0  0  0  0  0  0  0 
    3.1152    1.3592   -0.0189 C   0  0  0  0  0  0  0  0  0  0  0  0 
    3.0417   -1.1747   -0.0774 C   0  0  0  0  0  0  0  0  0  0  0  0 
    4.0718    1.3001    1.1903 C   0  0  0  0  0  0  0  0  0  0  0  0 
    3.9967   -1.2260    1.1329 C   0  0  0  0  0  0  0  0  0  0  0  0 
    5.8426   -0.0246    2.4202 C   0  0  0  0  0  0  0  0  0  0  0  0 
    2.2565    0.1172   -0.0993 C   0  0  0  0  0  0  0  0  0  0  0  0 
    4.9116    0.0103    1.2001 C   0  0  0  0  0  0  0  0  0  0  0  0 
    6.7362   -1.1331    2.4285 O   0  0  0  0  0  0  0  0  0  0  0  0 
    0.3767    1.0969   -0.1521 H   0  0  0  0  0  0  0  0  0  0  0  0 
    0.3249   -0.7519   -0.1945 H   0  0  0  0  0  0  0  0  0  0  0  0 
    3.7205    1.4387   -0.9359 H   0  0  0  0  0  0  0  0  0  0  0  0 
    2.4913    2.2590    0.0297 H   0  0  0  0  0  0  0  0  0  0  0  0 
    2.3671   -2.0385   -0.0711 H   0  0  0  0  0  0  0  0  0  0  0  0 
    3.6451   -1.2462   -0.9961 H   0  0  0  0  0  0  0  0  0  0  0  0 
    3.4794    1.3535    2.1156 H   0  0  0  0  0  0  0  0  0  0  0  0 
    4.7303    2.1787    1.1855 H   0  0  0  0  0  0  0  0  0  0  0  0 
    4.6009   -2.1412    1.0781 H   0  0  0  0  0  0  0  0  0  0  0  0 
    3.4005   -1.2840    2.0565 H   0  0  0  0  0  0  0  0  0  0  0  0 
    5.2420    0.0055    3.3456 H   0  0  0  0  0  0  0  0  0  0  0  0 
    6.4826    0.8646    2.4206 H   0  0  0  0  0  0  0  0  0  0  0  0 
    5.5542    0.0062    0.3060 H   0  0  0  0  0  0  0  0  0  0  0  0 
    6.2139   -1.9304    2.6016 H   0  0  0  0  0  0  0  0  0  0  0  0 
  1  7  2  0  0  0  0 
  2 13  1  0  0  0  0 
  2  4  1  0  0  0  0 
  3 14  1  0  0  0  0 
  3  5  1  0  0  0  0 
  4  8  1  0  0  0  0 
  4 16  1  0  0  0  0 
  5  8  1  0  0  0  0 
  5 19  1  0  0  0  0 
  6 21  1  0  0  0  0 
  6  9  1  0  0  0  0 
  6 20  1  0  0  0  0 
  7  3  1  0  0  0  0 
  7  2  1  0  0  0  0 
  8  6  1  0  0  0  0 
  9 23  1  0  0  0  0 
 10  1  1  0  0  0  0 
 11  1  1  0  0  0  0 
 12  2  1  0  0  0  0 
 15  3  1  0  0  0  0 
 17  4  1  0  0  0  0 
 18  5  1  0  0  0  0 
 22  8  1  0  0  0  0 
M  END 
>  <HBA> 
1 
 
>  <HBD> 
1 
 
>  <TPSA> 
20.23 
 
>  <cid> 
13860 
 
>  <dipole> 
1.18 
 
>  <excitation_energy_1> 
6.052 
 
>  <excitation_energy_2> 
6.308 
 
>  <excitation_energy_3> 
6.394 
 
>  <excitation_energy_4> 
6.482 
 
>  <homo_energy> 
-6.574 
 
>  <homo_lumo_gap> 
7.187 
 
>  <logP> 
1.725 
 
>  <lumo_energy> 
0.612 
 
>  <melting_point> 
-3.87 
 
>  <molecular_refractivity> 
39.14 
 
>  <oscillator_strength_1> 
0.0738 
 
>  <oscillator_strength_2> 
0.0191 
 
>  <oscillator_strength_3> 
0.1116 
 
>  <oscillator_strength_4> 
0.0536 
 
>  <open_babel_can_smiles> 
OCC1CCC(=C)CC1 
 
>  <mulliken_charges> 
23 
1   -0.416905 
2   -0.327607 
3   -0.327665 
4   -0.268518 
5   -0.27776 
6   -0.035601 
7   0.239324 
8   -0.091291 
9   -0.619719 
10   0.1313 
11   0.130816 
12   0.14075 
13   0.138713 
14   0.138371 
15   0.142356 
16   0.134063 
17   0.133471 
18   0.124763 
19   0.131235 
20   0.114962 
21   0.142799 
22   0.129471 
23   0.392673 
 
>  <lowdin_charges> 
23 
1   -0.365609 
2   -0.273353 
3   -0.272936 
4   -0.276777 
5   -0.283062 
6   -0.137553 
7   0.003306 
8   -0.148456 
9   -0.467596 
10   0.153848 
11   0.153813 
12   0.147292 
13   0.150099 
14   0.150099 
15   0.148198 
16   0.141008 
17   0.145144 
18   0.139734 
19   0.139022 
20   0.123976 
21   0.147058 
22   0.141013 
23   0.341734 
 
$$$$ 
 
