PCCDB-ID:  28674 
public computational chemistry database (PCCDB) project, http://pccdb.org 
 
 12 12  0  0  0  0  0  0  0  0999 V2000 
    1.1468    0.2029    0.0638 C   0  0  0  0  0  0  0  0  0  0  0  0 
    2.6362    0.0918    0.0950 C   0  0  0  0  0  0  0  0  0  0  0  0 
    3.4542   -1.0836   -0.0405 C   0  0  0  0  0  0  0  0  0  0  0  0 
    3.0199   -2.3719   -0.3008 N   0  0  0  0  0  0  0  0  0  0  0  0 
    3.4279    1.1191    0.2500 N   0  0  0  0  0  0  0  0  0  0  0  0 
    4.7171   -0.7447    0.0393 N   0  0  0  0  0  0  0  0  0  0  0  0 
    4.7074    0.6320    0.2110 O   0  0  0  0  0  0  0  0  0  0  0  0 
    0.6865   -0.3462    0.8951 H   0  0  0  0  0  0  0  0  0  0  0  0 
    0.7449   -0.2092   -0.8692 H   0  0  0  0  0  0  0  0  0  0  0  0 
    0.8481    1.2507    0.1412 H   0  0  0  0  0  0  0  0  0  0  0  0 
    2.1834   -2.6438    0.2019 H   0  0  0  0  0  0  0  0  0  0  0  0 
    3.7530   -3.0664   -0.2090 H   0  0  0  0  0  0  0  0  0  0  0  0 
  1  2  1  0  0  0  0 
  1 10  1  0  0  0  0 
  1  8  1  0  0  0  0 
  2  5  2  0  0  0  0 
  3  6  2  0  0  0  0 
  3  2  1  0  0  0  0 
  4 12  1  0  0  0  0 
  4  3  1  0  0  0  0 
  4 11  1  0  0  0  0 
  6  7  1  0  0  0  0 
  7  5  1  0  0  0  0 
  9  1  1  0  0  0  0 
M  END 
>  <HBA> 
4 
 
>  <HBD> 
1 
 
>  <TPSA> 
64.94 
 
>  <cid> 
28674 
 
>  <dipole> 
4.78 
 
>  <excitation_energy_1> 
5.413 
 
>  <excitation_energy_2> 
5.553 
 
>  <excitation_energy_3> 
6.006 
 
>  <excitation_energy_4> 
6.651 
 
>  <homo_energy> 
-6.729 
 
>  <homo_lumo_gap> 
5.978 
 
>  <logP> 
0.541 
 
>  <lumo_energy> 
-0.751 
 
>  <melting_point> 
87.55 
 
>  <molecular_refractivity> 
23.67 
 
>  <oscillator_strength_1> 
0.0756 
 
>  <oscillator_strength_2> 
0.008 
 
>  <oscillator_strength_3> 
0.0002 
 
>  <oscillator_strength_4> 
0.0012 
 
>  <open_babel_can_smiles> 
Nc1nonc1C 
 
>  <mulliken_charges> 
12 
1   -0.532693 
2   0.301225 
3   0.411681 
4   -0.780617 
5   -0.178126 
6   -0.219674 
7   -0.221202 
8   0.166366 
9   0.181809 
10   0.194349 
11   0.332938 
12   0.343944 
 
>  <lowdin_charges> 
12 
1   -0.440728 
2   -0.021315 
3   0.031427 
4   -0.475293 
5   -0.047713 
6   -0.100447 
7   -0.04462 
8   0.165315 
9   0.17288 
10   0.181423 
11   0.286436 
12   0.292633 
 
$$$$ 
 
