PCCDB-ID:  60862 
public computational chemistry database (PCCDB) project, http://pccdb.org 
 
 25 25  0  0  0  0  0  0  0  0999 V2000 
    0.8459   -0.1610    0.5480 C   0  0  0  0  0  0  0  0  0  0  0  0 
    4.1565    5.5537    2.3931 C   0  0  0  0  0  0  0  0  0  0  0  0 
    3.3932   -1.5424    1.5506 C   0  0  0  0  0  0  0  0  0  0  0  0 
    3.8069   -0.2898    2.2725 C   0  0  0  0  0  0  0  0  0  0  0  0 
    2.9903   -1.2328    0.0933 C   0  0  0  0  0  0  0  0  0  0  0  0 
    4.0531    2.1136    2.5192 C   0  0  0  0  0  0  0  0  0  0  0  0 
    2.9009    1.1461    0.4367 C   0  0  0  0  0  0  0  0  0  0  0  0 
    3.5924    0.9463    1.7799 C   0  0  0  0  0  0  0  0  0  0  0  0 
    3.8618    3.2993    2.0612 N   0  0  0  0  0  0  0  0  0  0  0  0 
    2.1726   -0.0278   -0.0449 N   0  0  0  0  0  0  0  0  0  0  0  0 
    4.3887    4.2575    2.9318 O   0  0  0  0  0  0  0  0  0  0  0  0 
    0.3438   -1.0319    0.1113 H   0  0  0  0  0  0  0  0  0  0  0  0 
    0.2513    0.7259    0.3030 H   0  0  0  0  0  0  0  0  0  0  0  0 
    0.8387   -0.2770    1.6468 H   0  0  0  0  0  0  0  0  0  0  0  0 
    4.5851    6.2505    3.1176 H   0  0  0  0  0  0  0  0  0  0  0  0 
    3.0836    5.7491    2.2788 H   0  0  0  0  0  0  0  0  0  0  0  0 
    4.6522    5.6745    1.4226 H   0  0  0  0  0  0  0  0  0  0  0  0 
    2.5621   -2.0219    2.0914 H   0  0  0  0  0  0  0  0  0  0  0  0 
    4.2129   -2.2748    1.5666 H   0  0  0  0  0  0  0  0  0  0  0  0 
    4.2980   -0.4025    3.2393 H   0  0  0  0  0  0  0  0  0  0  0  0 
    2.4494   -2.0799   -0.3447 H   0  0  0  0  0  0  0  0  0  0  0  0 
    3.8985   -1.0848   -0.5059 H   0  0  0  0  0  0  0  0  0  0  0  0 
    4.5700    1.9659    3.4721 H   0  0  0  0  0  0  0  0  0  0  0  0 
    3.6549    1.4308   -0.3123 H   0  0  0  0  0  0  0  0  0  0  0  0 
    2.2107    1.9932    0.5005 H   0  0  0  0  0  0  0  0  0  0  0  0 
  1 14  1  0  0  0  0 
  2 11  1  0  0  0  0 
  2 15  1  0  0  0  0 
  3 19  1  0  0  0  0 
  3 18  1  0  0  0  0 
  3  4  1  0  0  0  0 
  4 20  1  0  0  0  0 
  5  3  1  0  0  0  0 
  6 23  1  0  0  0  0 
  7 25  1  0  0  0  0 
  7  8  1  0  0  0  0 
  8  4  2  0  0  0  0 
  8  6  1  0  0  0  0 
  9  6  2  0  0  0  0 
  9 11  1  0  0  0  0 
 10  5  1  0  0  0  0 
 10  7  1  0  0  0  0 
 10  1  1  0  0  0  0 
 12  1  1  0  0  0  0 
 13  1  1  0  0  0  0 
 16  2  1  0  0  0  0 
 17  2  1  0  0  0  0 
 21  5  1  0  0  0  0 
 22  5  1  0  0  0  0 
 24  7  1  0  0  0  0 
M  END 
>  <HBA> 
3 
 
>  <HBD> 
0 
 
>  <TPSA> 
24.83 
 
>  <cid> 
60862 
 
>  <dipole> 
0.97 
 
>  <excitation_energy_1> 
3.794 
 
>  <excitation_energy_2> 
5.002 
 
>  <excitation_energy_3> 
5.035 
 
>  <excitation_energy_4> 
5.336 
 
>  <homo_energy> 
-5.538 
 
>  <homo_lumo_gap> 
4.746 
 
>  <logP> 
0.818 
 
>  <lumo_energy> 
-0.792 
 
>  <melting_point> 
21.79 
 
>  <molecular_refractivity> 
49.56 
 
>  <oscillator_strength_1> 
0.0016 
 
>  <oscillator_strength_2> 
0.3513 
 
>  <oscillator_strength_3> 
0.2419 
 
>  <oscillator_strength_4> 
0.0014 
 
>  <open_babel_can_smiles> 
CO/N=C/C1=CCCN(C1)C 
 
>  <mulliken_charges> 
25 
1   -0.303552 
2   -0.179632 
3   -0.316645 
4   -0.171122 
5   -0.147213 
6   0.052527 
7   -0.208038 
8   0.140715 
9   -0.177462 
10   -0.364182 
11   -0.375751 
12   0.145583 
13   0.151791 
14   0.127708 
15   0.156472 
16   0.148844 
17   0.149488 
18   0.153285 
19   0.146568 
20   0.127316 
21   0.138378 
22   0.144734 
23   0.137298 
24   0.16012 
25   0.162768 
 
>  <lowdin_charges> 
25 
1   -0.357238 
2   -0.281211 
3   -0.295559 
4   -0.163754 
5   -0.204649 
6   -0.108208 
7   -0.205773 
8   -0.037108 
9   -0.05941 
10   -0.182791 
11   -0.194827 
12   0.149256 
13   0.151727 
14   0.122692 
15   0.156871 
16   0.143 
17   0.144637 
18   0.153789 
19   0.155697 
20   0.152818 
21   0.146663 
22   0.14587 
23   0.148152 
24   0.156739 
25   0.162616 
 
$$$$ 
 
