PCCDB-ID:  62333 
public computational chemistry database (PCCDB) project, http://pccdb.org 
 
 28 27  0  0  1  0  0  0  0  0999 V2000 
    2.5157    2.4336   -3.0972 C   0  0  0  0  0  0  0  0  0  0  0  0 
    7.0212    4.5954   -2.0696 C   0  0  0  0  0  0  0  0  0  0  0  0 
    2.9181    2.7716   -1.6709 C   0  0  0  0  0  0  0  0  0  0  0  0 
    7.9309    3.9970   -1.0090 C   0  0  0  0  0  0  0  0  0  0  0  0 
    5.5689    0.4206   -0.4746 C   0  0  2  0  0  0  0  0  0  0  0  0 
    6.1034    1.2380    0.7334 C   0  0  1  0  0  0  0  0  0  0  0  0 
    4.1749    0.9126   -0.8667 C   0  0  0  0  0  0  0  0  0  0  0  0 
    6.5236    2.6594    0.3691 C   0  0  0  0  0  0  0  0  0  0  0  0 
    5.5107   -0.9472   -0.1642 O   0  0  0  0  0  0  0  0  0  0  0  0 
    5.1365    1.2832    1.7564 O   0  0  0  0  0  0  0  0  0  0  0  0 
    3.1797    0.2306   -0.7440 O   0  0  0  0  0  0  0  0  0  0  0  0 
    6.0669    3.6333    0.9377 O   0  0  0  0  0  0  0  0  0  0  0  0 
    4.1985    2.1716   -1.3307 O   0  0  0  0  0  0  0  0  0  0  0  0 
    7.4560    2.6887   -0.5889 O   0  0  0  0  0  0  0  0  0  0  0  0 
    1.5828    2.9506   -3.3495 H   0  0  0  0  0  0  0  0  0  0  0  0 
    2.3516    1.3581   -3.2076 H   0  0  0  0  0  0  0  0  0  0  0  0 
    3.2867    2.7504   -3.8071 H   0  0  0  0  0  0  0  0  0  0  0  0 
    7.4432    5.5422   -2.4255 H   0  0  0  0  0  0  0  0  0  0  0  0 
    6.0276    4.7928   -1.6584 H   0  0  0  0  0  0  0  0  0  0  0  0 
    6.9218    3.9184   -2.9238 H   0  0  0  0  0  0  0  0  0  0  0  0 
    2.1728    2.4257   -0.9513 H   0  0  0  0  0  0  0  0  0  0  0  0 
    3.0833    3.8430   -1.5381 H   0  0  0  0  0  0  0  0  0  0  0  0 
    8.0006    4.6401   -0.1288 H   0  0  0  0  0  0  0  0  0  0  0  0 
    8.9325    3.8020   -1.3982 H   0  0  0  0  0  0  0  0  0  0  0  0 
    6.2541    0.5595   -1.3188 H   0  0  0  0  0  0  0  0  0  0  0  0 
    7.0007    0.7016    1.0769 H   0  0  0  0  0  0  0  0  0  0  0  0 
    4.5903   -1.1216    0.1059 H   0  0  0  0  0  0  0  0  0  0  0  0 
    5.0286    2.2288    1.9755 H   0  0  0  0  0  0  0  0  0  0  0  0 
  1  3  1  0  0  0  0 
  2 19  1  0  0  0  0 
  2  4  1  0  0  0  0 
  3 22  1  0  0  0  0 
  3 13  1  0  0  0  0 
  3 21  1  0  0  0  0 
  4 14  1  0  0  0  0 
  4 23  1  0  0  0  0 
  5 25  1  6  0  0  0 
  5  9  1  0  0  0  0 
  5  6  1  0  0  0  0 
  6 26  1  1  0  0  0 
  6 10  1  0  0  0  0 
  7 11  2  0  0  0  0 
  7  5  1  0  0  0  0 
  8  6  1  0  0  0  0 
  8 12  2  0  0  0  0 
  9 27  1  0  0  0  0 
 10 28  1  0  0  0  0 
 13  7  1  0  0  0  0 
 14  8  1  0  0  0  0 
 15  1  1  0  0  0  0 
 16  1  1  0  0  0  0 
 17  1  1  0  0  0  0 
 18  2  1  0  0  0  0 
 20  2  1  0  0  0  0 
 24  4  1  0  0  0  0 
M  END 
>  <HBA> 
6 
 
>  <HBD> 
2 
 
>  <TPSA> 
93.06 
 
>  <cid> 
62333 
 
>  <dipole> 
4.66 
 
>  <excitation_energy_1> 
5.73 
 
>  <excitation_energy_2> 
5.913 
 
>  <excitation_energy_3> 
6.063 
 
>  <excitation_energy_4> 
6.287 
 
>  <homo_energy> 
-7.048 
 
>  <homo_lumo_gap> 
6.74 
 
>  <logP> 
-1.166 
 
>  <lumo_energy> 
-0.307 
 
>  <melting_point> 
34.23 
 
>  <molecular_refractivity> 
45.46 
 
>  <oscillator_strength_1> 
0.0307 
 
>  <oscillator_strength_2> 
0.0025 
 
>  <oscillator_strength_3> 
0.008 
 
>  <oscillator_strength_4> 
0.0172 
 
>  <open_babel_can_smiles> 
CCOC(=O)[C@H]([C@H](C(=O)OCC)O)O 
 
>  <mulliken_charges> 
28 
1   -0.4635 
2   -0.461449 
3   -0.051267 
4   -0.052581 
5   0.057993 
6   0.053686 
7   0.620707 
8   0.626168 
9   -0.625456 
10   -0.641054 
11   -0.485612 
12   -0.505391 
13   -0.463842 
14   -0.456682 
15   0.155931 
16   0.180522 
17   0.158633 
18   0.154613 
19   0.177761 
20   0.162854 
21   0.179215 
22   0.161394 
23   0.176387 
24   0.162105 
25   0.170467 
26   0.178211 
27   0.41561 
28   0.414576 
 
>  <lowdin_charges> 
28 
1   -0.453677 
2   -0.453384 
3   -0.124021 
4   -0.123646 
5   -0.040579 
6   -0.03613 
7   0.190042 
8   0.183943 
9   -0.440706 
10   -0.453009 
11   -0.26003 
12   -0.274464 
13   -0.186346 
14   -0.178826 
15   0.162174 
16   0.166051 
17   0.157872 
18   0.161401 
19   0.165338 
20   0.159739 
21   0.164669 
22   0.154525 
23   0.162396 
24   0.156583 
25   0.166375 
26   0.167543 
27   0.354736 
28   0.351431 
 
$$$$ 
 
