PCCDB-ID:  72883 
public computational chemistry database (PCCDB) project, http://pccdb.org 
 
 17 17  0  0  0  0  0  0  0  0999 V2000 
   -1.3920   -0.1292    0.0512 C   0  0  0  0  0  0  0  0  0  0  0  0 
   -0.5717   -1.2566    0.1078 C   0  0  0  0  0  0  0  0  0  0  0  0 
   -0.8227    1.1326   -0.0953 C   0  0  0  0  0  0  0  0  0  0  0  0 
    0.8124   -1.1189    0.0098 C   0  0  0  0  0  0  0  0  0  0  0  0 
    1.0984    2.6053   -0.3355 C   0  0  0  0  0  0  0  0  0  0  0  0 
    0.5718    1.2784   -0.1825 C   0  0  0  0  0  0  0  0  0  0  0  0 
    1.4106    0.1410   -0.1310 C   0  0  0  0  0  0  0  0  0  0  0  0 
    2.9069    0.2351   -0.1966 C   0  0  0  0  0  0  0  0  0  0  0  0 
    1.4664    3.7028   -0.4496 N   0  0  0  0  0  0  0  0  0  0  0  0 
    3.6634    1.0730    0.3810 N   0  0  0  0  0  0  0  0  0  0  0  0 
    3.5072   -0.7564   -0.9208 O   0  0  0  0  0  0  0  0  0  0  0  0 
   -2.4707   -0.2294    0.1220 H   0  0  0  0  0  0  0  0  0  0  0  0 
   -1.0067   -2.2439    0.2323 H   0  0  0  0  0  0  0  0  0  0  0  0 
   -1.4478    2.0181   -0.1468 H   0  0  0  0  0  0  0  0  0  0  0  0 
    1.4475   -1.9978    0.0724 H   0  0  0  0  0  0  0  0  0  0  0  0 
    3.1269    1.7355    0.9405 H   0  0  0  0  0  0  0  0  0  0  0  0 
    2.8572   -1.1507   -1.5229 H   0  0  0  0  0  0  0  0  0  0  0  0 
  1  2  1  0  0  0  0 
  1 12  1  0  0  0  0 
  2 13  1  0  0  0  0 
  3  1  2  0  0  0  0 
  4 15  1  0  0  0  0 
  4  2  2  0  0  0  0 
  5  6  1  0  0  0  0 
  6  7  2  0  0  0  0 
  6  3  1  0  0  0  0 
  7  4  1  0  0  0  0 
  8  7  1  0  0  0  0 
  8 10  2  0  0  0  0 
  9  5  3  0  0  0  0 
 10 16  1  0  0  0  0 
 11  8  1  0  0  0  0 
 14  3  1  0  0  0  0 
 17 11  1  0  0  0  0 
M  END 
>  <HBA> 
3 
 
>  <HBD> 
1 
 
>  <TPSA> 
66.88 
 
>  <cid> 
72883 
 
>  <dipole> 
7.19 
 
>  <excitation_energy_1> 
4.499 
 
>  <excitation_energy_2> 
4.604 
 
>  <excitation_energy_3> 
4.952 
 
>  <excitation_energy_4> 
5.218 
 
>  <homo_energy> 
-7.274 
 
>  <homo_lumo_gap> 
5.216 
 
>  <logP> 
1.357 
 
>  <lumo_energy> 
-2.057 
 
>  <melting_point> 
131.86 
 
>  <molecular_refractivity> 
39.25 
 
>  <oscillator_strength_1> 
0.0145 
 
>  <oscillator_strength_2> 
0.0207 
 
>  <oscillator_strength_3> 
0.0345 
 
>  <oscillator_strength_4> 
0.0102 
 
>  <open_babel_can_smiles> 
N#Cc1ccccc1C(=N)O 
 
>  <mulliken_charges> 
17 
1   -0.129835 
2   -0.11141 
3   -0.135578 
4   -0.204503 
5   0.226217 
6   0.103522 
7   0.060243 
8   0.430146 
9   -0.466185 
10   -0.560541 
11   -0.571498 
12   0.156799 
13   0.15562 
14   0.171143 
15   0.164019 
16   0.304302 
17   0.40754 
 
>  <lowdin_charges> 
17 
1   -0.139379 
2   -0.132786 
3   -0.125251 
4   -0.159802 
5   -0.020466 
6   -0.017513 
7   -0.02987 
8   0.124515 
9   -0.100879 
10   -0.360687 
11   -0.361861 
12   0.170052 
13   0.170569 
14   0.180594 
15   0.173885 
16   0.27063 
17   0.358251 
 
$$$$ 
 
