PCCDB-ID:  27828 
public computational chemistry database (PCCDB) project, http://pccdb.org 
 
 16 15  0  0  0  0  0  0  0  0999 V2000 
    1.1412    0.0444   -0.0920 C   0  0  0  0  0  0  0  0  0  0  0  0 
    2.7535    1.3143    1.2433 C   0  0  0  0  0  0  0  0  0  0  0  0 
    4.0700   -1.7939    0.3735 C   0  0  0  0  0  0  0  0  0  0  0  0 
    2.3641   -1.4503    2.0849 N   0  0  0  0  0  0  0  0  0  0  0  0 
    2.5274    0.1544    0.3746 N   0  0  0  0  0  0  0  0  0  0  0  0 
    2.9726   -1.0383    0.9721 N   0  0  0  0  0  0  0  0  0  0  0  0 
    2.8132   -2.5032    2.5395 O   0  0  0  0  0  0  0  0  0  0  0  0 
    0.9048    0.9414   -0.6733 H   0  0  0  0  0  0  0  0  0  0  0  0 
    0.4165   -0.0516    0.7301 H   0  0  0  0  0  0  0  0  0  0  0  0 
    1.0529   -0.8262   -0.7475 H   0  0  0  0  0  0  0  0  0  0  0  0 
    2.5243    2.2189    0.6710 H   0  0  0  0  0  0  0  0  0  0  0  0 
    3.8077    1.3449    1.5316 H   0  0  0  0  0  0  0  0  0  0  0  0 
    2.1338    1.2992    2.1522 H   0  0  0  0  0  0  0  0  0  0  0  0 
    3.7363   -2.8029    0.1100 H   0  0  0  0  0  0  0  0  0  0  0  0 
    4.8955   -1.8915    1.0862 H   0  0  0  0  0  0  0  0  0  0  0  0 
    4.3876   -1.2486   -0.5133 H   0  0  0  0  0  0  0  0  0  0  0  0 
  1  5  1  0  0  0  0 
  1  9  1  0  0  0  0 
  2 12  1  0  0  0  0 
  2 13  1  0  0  0  0 
  3  6  1  0  0  0  0 
  3 15  1  0  0  0  0 
  4  7  1  0  0  0  0 
  5  6  1  0  0  0  0 
  5  2  1  0  0  0  0 
  6  4  1  0  0  0  0 
  8  1  1  0  0  0  0 
 10  1  1  0  0  0  0 
 11  2  1  0  0  0  0 
 14  3  1  0  0  0  0 
 16  3  1  0  0  0  0 
M  RAD  2   4   2   7   2 
M  END 
>  <HBA> 
4 
 
>  <HBD> 
0 
 
>  <TPSA> 
35.91 
 
>  <cid> 
27828 
 
>  <dipole> 
3.4 
 
>  <excitation_energy_1> 
3.212 
 
>  <excitation_energy_2> 
4.89 
 
>  <excitation_energy_3> 
5.495 
 
>  <excitation_energy_4> 
5.909 
 
>  <homo_energy> 
-5.864 
 
>  <homo_lumo_gap> 
5.015 
 
>  <logP> 
0.076 
 
>  <lumo_energy> 
-0.849 
 
>  <melting_point> 
-0.25 
 
>  <molecular_refractivity> 
27.07 
 
>  <oscillator_strength_1> 
0.0013 
 
>  <oscillator_strength_2> 
0.0 
 
>  <oscillator_strength_3> 
0.0009 
 
>  <oscillator_strength_4> 
0.0249 
 
>  <open_babel_can_smiles> 
[O][N]N(N(C)C)C 
 
>  <mulliken_charges> 
16 
1   -0.293788 
2   -0.293609 
3   -0.306562 
4   0.146494 
5   -0.276211 
6   -0.096768 
7   -0.378176 
8   0.156592 
9   0.159251 
10   0.162967 
11   0.156608 
12   0.162882 
13   0.159027 
14   0.181196 
15   0.181388 
16   0.178708 
 
>  <lowdin_charges> 
16 
1   -0.361692 
2   -0.359633 
3   -0.369074 
4   0.047078 
5   -0.116636 
6   0.002603 
7   -0.271861 
8   0.156445 
9   0.145192 
10   0.159219 
11   0.156463 
12   0.157489 
13   0.144404 
14   0.167728 
15   0.168993 
16   0.17328 
 
$$$$ 
 
