PCCDB-ID:  69490 
public computational chemistry database (PCCDB) project, http://pccdb.org 
 
 22 21  0  0  0  0  0  0  0  0999 V2000 
    0.9200   -0.0064   -0.0416 C   0  0  0  0  0  0  0  0  0  0  0  0 
    2.4515    0.0226   -0.0643 C   0  0  0  0  0  0  0  0  0  0  0  0 
    3.0206    1.1725   -0.9057 C   0  0  0  0  0  0  0  0  0  0  0  0 
    4.5545    1.1974   -0.9332 C   0  0  0  0  0  0  0  0  0  0  0  0 
    5.0946    2.3506   -1.7650 C   0  0  0  0  0  0  0  0  0  0  0  0 
    7.1960    3.2094   -2.4100 C   0  0  0  0  0  0  0  0  0  0  0  0 
    6.6206    4.1530   -3.0442 N   0  0  0  0  0  0  0  0  0  0  0  0 
    8.5241    2.9461   -2.2655 O   0  0  0  0  0  0  0  0  0  0  0  0 
    6.5333    2.2630   -1.7403 O   0  0  0  0  0  0  0  0  0  0  0  0 
    0.5455   -0.8363    0.5683 H   0  0  0  0  0  0  0  0  0  0  0  0 
    0.5105   -0.1245   -1.0524 H   0  0  0  0  0  0  0  0  0  0  0  0 
    0.5116    0.9232    0.3737 H   0  0  0  0  0  0  0  0  0  0  0  0 
    2.8310   -0.9324   -0.4540 H   0  0  0  0  0  0  0  0  0  0  0  0 
    2.8325    0.1044    0.9634 H   0  0  0  0  0  0  0  0  0  0  0  0 
    2.6441    2.1284   -0.5126 H   0  0  0  0  0  0  0  0  0  0  0  0 
    2.6357    1.0937   -1.9331 H   0  0  0  0  0  0  0  0  0  0  0  0 
    4.9384    0.2533   -1.3413 H   0  0  0  0  0  0  0  0  0  0  0  0 
    4.9471    1.2803    0.0887 H   0  0  0  0  0  0  0  0  0  0  0  0 
    4.7910    3.3240   -1.3647 H   0  0  0  0  0  0  0  0  0  0  0  0 
    4.7537    2.3022   -2.8052 H   0  0  0  0  0  0  0  0  0  0  0  0 
    7.2863    4.7803   -3.4951 H   0  0  0  0  0  0  0  0  0  0  0  0 
    9.0216    3.6279   -2.7420 H   0  0  0  0  0  0  0  0  0  0  0  0 
  1 12  1  0  0  0  0 
  1 10  1  0  0  0  0 
  2  1  1  0  0  0  0 
  2 14  1  0  0  0  0 
  3 15  1  0  0  0  0 
  3  2  1  0  0  0  0 
  4  3  1  0  0  0  0 
  4 18  1  0  0  0  0 
  5  9  1  0  0  0  0 
  5 19  1  0  0  0  0 
  5  4  1  0  0  0  0 
  6  8  1  0  0  0  0 
  6  9  1  0  0  0  0 
  7  6  2  0  0  0  0 
 11  1  1  0  0  0  0 
 13  2  1  0  0  0  0 
 16  3  1  0  0  0  0 
 17  4  1  0  0  0  0 
 20  5  1  0  0  0  0 
 21  7  1  0  0  0  0 
 22  8  1  0  0  0  0 
M  END 
>  <HBA> 
3 
 
>  <HBD> 
1 
 
>  <TPSA> 
52.32 
 
>  <cid> 
69490 
 
>  <dipole> 
0.9 
 
>  <excitation_energy_1> 
5.89 
 
>  <excitation_energy_2> 
6.396 
 
>  <excitation_energy_3> 
7.198 
 
>  <excitation_energy_4> 
7.28 
 
>  <homo_energy> 
-7.01 
 
>  <homo_lumo_gap> 
8.327 
 
>  <logP> 
1.972 
 
>  <lumo_energy> 
1.317 
 
>  <melting_point> 
50.46 
 
>  <molecular_refractivity> 
35.34 
 
>  <oscillator_strength_1> 
0.0052 
 
>  <oscillator_strength_2> 
0.048 
 
>  <oscillator_strength_3> 
0.012 
 
>  <oscillator_strength_4> 
0.0067 
 
>  <open_babel_can_smiles> 
CCCCCOC(=N)O 
 
>  <mulliken_charges> 
22 
1   -0.442189 
2   -0.246296 
3   -0.257279 
4   -0.277901 
5   -0.017325 
6   0.645079 
7   -0.629948 
8   -0.571223 
9   -0.450044 
10   0.143526 
11   0.142499 
12   0.142481 
13   0.133412 
14   0.133362 
15   0.132365 
16   0.132414 
17   0.146849 
18   0.146342 
19   0.15716 
20   0.155891 
21   0.27413 
22   0.406696 
 
>  <lowdin_charges> 
22 
1   -0.445063 
2   -0.269574 
3   -0.273253 
4   -0.280958 
5   -0.115083 
6   0.18887 
7   -0.47476 
8   -0.3693 
9   -0.180311 
10   0.151213 
11   0.146236 
12   0.147152 
13   0.140446 
14   0.139475 
15   0.139901 
16   0.139008 
17   0.149314 
18   0.148035 
19   0.151075 
20   0.149438 
21   0.256511 
22   0.361625 
 
$$$$ 
 
