PCCDB-ID:  33385 
public computational chemistry database (PCCDB) project, http://pccdb.org 
 
 40 40  0  0  0  0  0  0  0  0999 V2000 
    1.6356    1.5811    2.8355 C   0  0  0  0  0  0  0  0  0  0  0  0 
    2.6922   -1.3469   -0.4605 C   0  0  0  0  0  0  0  0  0  0  0  0 
    7.3282   -2.3055   -0.6216 C   0  0  0  0  0  0  0  0  0  0  0  0 
    9.6942   -0.0734    2.5353 C   0  0  0  0  0  0  0  0  0  0  0  0 
    6.2919    3.9478    1.8565 C   0  0  0  0  0  0  0  0  0  0  0  0 
    2.0746    1.3813    1.3821 C   0  0  0  0  0  0  0  0  0  0  0  0 
    2.8379   -0.9831    1.0204 C   0  0  0  0  0  0  0  0  0  0  0  0 
    7.4540   -1.9276    0.8575 C   0  0  0  0  0  0  0  0  0  0  0  0 
    9.1075   -0.0568    1.1208 C   0  0  0  0  0  0  0  0  0  0  0  0 
    5.9772    2.4974    1.5988 C   0  0  0  0  0  0  0  0  0  0  0  0 
    4.4711    0.8343    1.3029 C   0  0  0  0  0  0  0  0  0  0  0  0 
    6.6905    0.3836    1.2203 C   0  0  0  0  0  0  0  0  0  0  0  0 
    4.6896    2.1514    1.5474 N   0  0  0  0  0  0  0  0  0  0  0  0 
    7.0212    1.6752    1.4571 N   0  0  0  0  0  0  0  0  0  0  0  0 
    5.4330   -0.0861    1.1169 N   0  0  0  0  0  0  0  0  0  0  0  0 
    3.1739    0.4237    1.2378 N   0  0  0  0  0  0  0  0  0  0  0  0 
    7.7136   -0.5037    1.0692 N   0  0  0  0  0  0  0  0  0  0  0  0 
    0.7868    2.2735    2.8854 H   0  0  0  0  0  0  0  0  0  0  0  0 
    2.4585    2.0009    3.4215 H   0  0  0  0  0  0  0  0  0  0  0  0 
    1.3277    0.6351    3.2964 H   0  0  0  0  0  0  0  0  0  0  0  0 
    2.4066   -2.4001   -0.5692 H   0  0  0  0  0  0  0  0  0  0  0  0 
    3.6402   -1.1901   -0.9836 H   0  0  0  0  0  0  0  0  0  0  0  0 
    1.9239   -0.7362   -0.9487 H   0  0  0  0  0  0  0  0  0  0  0  0 
    7.1684   -3.3851   -0.7282 H   0  0  0  0  0  0  0  0  0  0  0  0 
    8.2331   -2.0408   -1.1808 H   0  0  0  0  0  0  0  0  0  0  0  0 
    6.4794   -1.7841   -1.0740 H   0  0  0  0  0  0  0  0  0  0  0  0 
   10.7484    0.2277    2.5143 H   0  0  0  0  0  0  0  0  0  0  0  0 
    9.6368   -1.0726    2.9830 H   0  0  0  0  0  0  0  0  0  0  0  0 
    9.1484    0.6254    3.1759 H   0  0  0  0  0  0  0  0  0  0  0  0 
    5.3747    4.5382    1.8924 H   0  0  0  0  0  0  0  0  0  0  0  0 
    6.9527    4.3348    1.0734 H   0  0  0  0  0  0  0  0  0  0  0  0 
    6.8286    4.0517    2.8066 H   0  0  0  0  0  0  0  0  0  0  0  0 
    2.3929    2.3347    0.9577 H   0  0  0  0  0  0  0  0  0  0  0  0 
    1.2383    1.0086    0.7790 H   0  0  0  0  0  0  0  0  0  0  0  0 
    3.6159   -1.5957    1.4793 H   0  0  0  0  0  0  0  0  0  0  0  0 
    1.9007   -1.1822    1.5536 H   0  0  0  0  0  0  0  0  0  0  0  0 
    8.2778   -2.4825    1.3220 H   0  0  0  0  0  0  0  0  0  0  0  0 
    6.5373   -2.1914    1.3880 H   0  0  0  0  0  0  0  0  0  0  0  0 
    9.6850   -0.7149    0.4608 H   0  0  0  0  0  0  0  0  0  0  0  0 
    9.1578    0.9534    0.7119 H   0  0  0  0  0  0  0  0  0  0  0  0 
  1 18  1  0  0  0  0 
  1 20  1  0  0  0  0 
  1 19  1  0  0  0  0 
  2  7  1  0  0  0  0 
  3  8  1  0  0  0  0 
  4 28  1  0  0  0  0 
  4 29  1  0  0  0  0 
  5 30  1  0  0  0  0 
  5 32  1  0  0  0  0 
  6  1  1  0  0  0  0 
  7 16  1  0  0  0  0 
  7 35  1  0  0  0  0 
  7 36  1  0  0  0  0 
  8 17  1  0  0  0  0 
  8 37  1  0  0  0  0 
  8 38  1  0  0  0  0 
  9  4  1  0  0  0  0 
 10  5  1  0  0  0  0 
 11 13  2  0  0  0  0 
 12 14  2  0  0  0  0 
 13 10  2  0  0  0  0 
 14 10  1  0  0  0  0 
 15 12  1  0  0  0  0 
 15 11  1  0  0  0  0 
 16 11  1  0  0  0  0 
 16  6  1  0  0  0  0 
 17  9  1  0  0  0  0 
 17 12  1  0  0  0  0 
 21  2  1  0  0  0  0 
 22  2  1  0  0  0  0 
 23  2  1  0  0  0  0 
 24  3  1  0  0  0  0 
 25  3  1  0  0  0  0 
 26  3  1  0  0  0  0 
 27  4  1  0  0  0  0 
 31  5  1  0  0  0  0 
 33  6  1  0  0  0  0 
 34  6  1  0  0  0  0 
 39  9  1  0  0  0  0 
 40  9  1  0  0  0  0 
M  RAD  1  15   2 
M  END 
>  <HBA> 
5 
 
>  <HBD> 
0 
 
>  <TPSA> 
45.15 
 
>  <cid> 
33385 
 
>  <dipole> 
1.7 
 
>  <excitation_energy_1> 
4.832 
 
>  <excitation_energy_2> 
5.062 
 
>  <excitation_energy_3> 
5.165 
 
>  <excitation_energy_4> 
5.245 
 
>  <homo_energy> 
-5.731 
 
>  <homo_lumo_gap> 
5.717 
 
>  <logP> 
1.872 
 
>  <lumo_energy> 
-0.014 
 
>  <melting_point> 
71.71 
 
>  <molecular_refractivity> 
72.44 
 
>  <oscillator_strength_1> 
0.0667 
 
>  <oscillator_strength_2> 
0.0059 
 
>  <oscillator_strength_3> 
0.0 
 
>  <oscillator_strength_4> 
0.0045 
 
>  <open_babel_can_smiles> 
CCN(C1=NC(=[N]=C([N]1)N(CC)CC)C)CC 
 
>  <mulliken_charges> 
40 
1   -0.443944 
2   -0.44607 
3   -0.446 
4   -0.443644 
5   -0.503374 
6   -0.133895 
7   -0.137443 
8   -0.136723 
9   -0.134726 
10   0.446445 
11   0.695841 
12   0.691709 
13   -0.542928 
14   -0.541737 
15   -0.586108 
16   -0.461422 
17   -0.461433 
18   0.141007 
19   0.170755 
20   0.141854 
21   0.141043 
22   0.169222 
23   0.145295 
24   0.14067 
25   0.145116 
26   0.169205 
27   0.140996 
28   0.141864 
29   0.169861 
30   0.164517 
31   0.166538 
32   0.167425 
33   0.181079 
34   0.138189 
35   0.175693 
36   0.140679 
37   0.140426 
38   0.175014 
39   0.13792 
40   0.181086 
 
>  <lowdin_charges> 
40 
1   -0.453734 
2   -0.452278 
3   -0.451979 
4   -0.451643 
5   -0.448627 
6   -0.195629 
7   -0.194891 
8   -0.194587 
9   -0.194493 
10   0.117111 
11   0.141668 
12   0.140428 
13   -0.253921 
14   -0.256644 
15   -0.265166 
16   -0.084798 
17   -0.085869 
18   0.151576 
19   0.163023 
20   0.146534 
21   0.149802 
22   0.159723 
23   0.149327 
24   0.149159 
25   0.148485 
26   0.160505 
27   0.149788 
28   0.145807 
29   0.162943 
30   0.16428 
31   0.169045 
32   0.16873 
33   0.16869 
34   0.144279 
35   0.166124 
36   0.144446 
37   0.145393 
38   0.164791 
39   0.144585 
40   0.168019 
 
$$$$ 
 
