PCCDB-ID:  60218 
public computational chemistry database (PCCDB) project, http://pccdb.org 
 
 35 37  0  0  0  0  0  0  0  0999 V2000 
    1.7488    1.4631   -0.4101 C   0  0  0  0  0  0  0  0  0  0  0  0 
    0.3683   -2.6219    2.3331 C   0  0  0  0  0  0  0  0  0  0  0  0 
    1.6058   -2.9267    1.7574 C   0  0  0  0  0  0  0  0  0  0  0  0 
   -0.2219   -1.3959    2.0347 C   0  0  0  0  0  0  0  0  0  0  0  0 
    4.1536   -2.7266   -5.4504 C   0  0  0  0  0  0  0  0  0  0  0  0 
    3.2557   -2.7714   -4.2078 C   0  0  0  0  0  0  0  0  0  0  0  0 
    2.2400   -2.0299    0.9058 C   0  0  0  0  0  0  0  0  0  0  0  0 
    0.3984   -0.4881    1.1744 C   0  0  0  0  0  0  0  0  0  0  0  0 
    4.4870    0.2430   -1.3569 C   0  0  0  0  0  0  0  0  0  0  0  0 
    5.3516   -0.1537   -2.3698 C   0  0  0  0  0  0  0  0  0  0  0  0 
    5.6119   -2.6491   -5.0134 C   0  0  0  0  0  0  0  0  0  0  0  0 
    2.8263   -1.2931   -2.1837 C   0  0  0  0  0  0  0  0  0  0  0  0 
    3.6868   -1.7256   -3.1976 C   0  0  0  0  0  0  0  0  0  0  0  0 
    1.6458   -0.7878    0.5918 C   0  0  0  0  0  0  0  0  0  0  0  0 
    3.2079   -0.3224   -1.2515 C   0  0  0  0  0  0  0  0  0  0  0  0 
    4.9622   -1.1407   -3.2828 C   0  0  0  0  0  0  0  0  0  0  0  0 
    2.3114    0.1306   -0.2328 N   0  0  0  0  0  0  0  0  0  0  0  0 
    5.8762   -1.4669   -4.2510 O   0  0  0  0  0  0  0  0  0  0  0  0 
    1.5615    1.9319    0.5621 H   0  0  0  0  0  0  0  0  0  0  0  0 
    0.8045    1.4572   -0.9798 H   0  0  0  0  0  0  0  0  0  0  0  0 
    2.4671    2.0775   -0.9555 H   0  0  0  0  0  0  0  0  0  0  0  0 
   -0.1210   -3.3258    3.0000 H   0  0  0  0  0  0  0  0  0  0  0  0 
    2.0922   -3.8728    1.9826 H   0  0  0  0  0  0  0  0  0  0  0  0 
   -1.1861   -1.1360    2.4653 H   0  0  0  0  0  0  0  0  0  0  0  0 
    3.9183   -1.8457   -6.0606 H   0  0  0  0  0  0  0  0  0  0  0  0 
    4.0010   -3.6122   -6.0782 H   0  0  0  0  0  0  0  0  0  0  0  0 
    3.3087   -3.7725   -3.7553 H   0  0  0  0  0  0  0  0  0  0  0  0 
    2.2055   -2.6160   -4.4827 H   0  0  0  0  0  0  0  0  0  0  0  0 
    3.2078   -2.2779    0.4836 H   0  0  0  0  0  0  0  0  0  0  0  0 
   -0.0989    0.4493    0.9536 H   0  0  0  0  0  0  0  0  0  0  0  0 
    4.8001    0.9897   -0.6325 H   0  0  0  0  0  0  0  0  0  0  0  0 
    6.3450    0.2744   -2.4623 H   0  0  0  0  0  0  0  0  0  0  0  0 
    6.2948   -2.5974   -5.8654 H   0  0  0  0  0  0  0  0  0  0  0  0 
    5.8775   -3.5311   -4.4107 H   0  0  0  0  0  0  0  0  0  0  0  0 
    1.8311   -1.7260   -2.1161 H   0  0  0  0  0  0  0  0  0  0  0  0 
  1 17  1  0  0  0  0 
  1 19  1  0  0  0  0 
  2 22  1  0  0  0  0 
  3 23  1  0  0  0  0 
  3  2  2  0  0  0  0 
  4  2  1  0  0  0  0 
  4 24  1  0  0  0  0 
  5 11  1  0  0  0  0 
  5  6  1  0  0  0  0 
  6 27  1  0  0  0  0 
  6 13  1  0  0  0  0 
  7  3  1  0  0  0  0 
  8  4  2  0  0  0  0 
  9 15  1  0  0  0  0 
  9 31  1  0  0  0  0 
 10  9  2  0  0  0  0 
 11 34  1  0  0  0  0 
 11 18  1  0  0  0  0 
 12 35  1  0  0  0  0 
 12 15  2  0  0  0  0 
 13 12  1  0  0  0  0 
 14  7  2  0  0  0  0 
 14  8  1  0  0  0  0 
 15 17  1  0  0  0  0 
 16 13  2  0  0  0  0 
 16 10  1  0  0  0  0 
 17 14  1  0  0  0  0 
 18 16  1  0  0  0  0 
 20  1  1  0  0  0  0 
 21  1  1  0  0  0  0 
 25  5  1  0  0  0  0 
 26  5  1  0  0  0  0 
 28  6  1  0  0  0  0 
 29  7  1  0  0  0  0 
 30  8  1  0  0  0  0 
 32 10  1  0  0  0  0 
 33 11  1  0  0  0  0 
M  END 
>  <HBA> 
1 
 
>  <HBD> 
0 
 
>  <TPSA> 
12.47 
 
>  <cid> 
60218 
 
>  <dipole> 
2.16 
 
>  <excitation_energy_1> 
3.852 
 
>  <excitation_energy_2> 
4.219 
 
>  <excitation_energy_3> 
4.441 
 
>  <excitation_energy_4> 
4.517 
 
>  <homo_energy> 
-4.863 
 
>  <homo_lumo_gap> 
4.74 
 
>  <logP> 
3.78 
 
>  <lumo_energy> 
-0.122 
 
>  <melting_point> 
80.12 
 
>  <molecular_refractivity> 
75.04 
 
>  <oscillator_strength_1> 
0.0144 
 
>  <oscillator_strength_2> 
0.2044 
 
>  <oscillator_strength_3> 
0.0342 
 
>  <oscillator_strength_4> 
0.0113 
 
>  <open_babel_can_smiles> 
CN(c1ccc2c(c1)CCCO2)c1ccccc1 
 
>  <mulliken_charges> 
35 
1   -0.309028 
2   -0.13607 
3   -0.137594 
4   -0.137189 
5   -0.294935 
6   -0.339982 
7   -0.175966 
8   -0.202596 
9   -0.162391 
10   -0.193132 
11   -0.035106 
12   -0.220685 
13   0.118464 
14   0.341796 
15   0.246947 
16   0.328456 
17   -0.563587 
18   -0.527811 
19   0.161215 
20   0.144461 
21   0.163369 
22   0.11773 
23   0.122062 
24   0.121392 
25   0.157243 
26   0.142643 
27   0.156128 
28   0.155121 
29   0.136134 
30   0.121824 
31   0.13301 
32   0.138244 
33   0.153366 
34   0.140125 
35   0.136342 
 
>  <lowdin_charges> 
35 
1   -0.349067 
2   -0.189554 
3   -0.150727 
4   -0.148593 
5   -0.291351 
6   -0.272234 
7   -0.193512 
8   -0.212317 
9   -0.166253 
10   -0.179549 
11   -0.126707 
12   -0.167035 
13   -0.048329 
14   0.056716 
15   0.026393 
16   0.087365 
17   -0.106323 
18   -0.210525 
19   0.154233 
20   0.137585 
21   0.163515 
22   0.154596 
23   0.154153 
24   0.153478 
25   0.153555 
26   0.154527 
27   0.152808 
28   0.155863 
29   0.163107 
30   0.157757 
31   0.163373 
32   0.166353 
33   0.155293 
34   0.138251 
35   0.163157 
 
$$$$ 
 
