PCCDB-ID:  53461 
public computational chemistry database (PCCDB) project, http://pccdb.org 
 
 30 32  0  0  0  0  0  0  0  0999 V2000 
    2.9402    1.4513   -0.4342 C   0  0  0  0  0  0  0  0  0  0  0  0 
    2.7189    0.0559   -0.3630 C   0  0  0  0  0  0  0  0  0  0  0  0 
    1.8794    2.3154   -0.2914 C   0  0  0  0  0  0  0  0  0  0  0  0 
    1.4536   -0.4485   -0.1561 C   0  0  0  0  0  0  0  0  0  0  0  0 
   -0.5333    2.7160    0.0837 C   0  0  0  0  0  0  0  0  0  0  0  0 
   -1.3009   -1.5592    0.2850 C   0  0  0  0  0  0  0  0  0  0  0  0 
   -1.7994    2.2330    0.3024 C   0  0  0  0  0  0  0  0  0  0  0  0 
   -1.1184   -2.1290    1.7160 C   0  0  0  0  0  0  0  0  0  0  0  0 
    0.5628    1.8299   -0.0736 C   0  0  0  0  0  0  0  0  0  0  0  0 
    0.3288    0.4139   -0.0067 C   0  0  0  0  0  0  0  0  0  0  0  0 
   -0.9982   -0.0799    0.2061 C   0  0  0  0  0  0  0  0  0  0  0  0 
   -2.0265    0.8365    0.3695 C   0  0  0  0  0  0  0  0  0  0  0  0 
   -1.2603   -3.6160    1.7535 C   0  0  0  0  0  0  0  0  0  0  0  0 
   -2.2714   -4.2688    2.3266 N   0  0  0  0  0  0  0  0  0  0  0  0 
   -0.3673   -4.4692    1.1729 N   0  0  0  0  0  0  0  0  0  0  0  0 
   -1.9397   -5.5306    2.0644 N   0  0  0  0  0  0  0  0  0  0  0  0 
   -0.8117   -5.6832    1.3800 N   0  0  0  0  0  0  0  0  0  0  0  0 
   -3.2894    0.3498    0.6036 O   0  0  0  0  0  0  0  0  0  0  0  0 
    3.9436    1.8344   -0.5978 H   0  0  0  0  0  0  0  0  0  0  0  0 
    3.5571   -0.6273   -0.4710 H   0  0  0  0  0  0  0  0  0  0  0  0 
    2.0332    3.3911   -0.3410 H   0  0  0  0  0  0  0  0  0  0  0  0 
    1.3182   -1.5234   -0.1006 H   0  0  0  0  0  0  0  0  0  0  0  0 
   -0.3582    3.7878    0.0330 H   0  0  0  0  0  0  0  0  0  0  0  0 
   -2.3330   -1.7365   -0.0301 H   0  0  0  0  0  0  0  0  0  0  0  0 
   -0.6600   -2.1186   -0.4032 H   0  0  0  0  0  0  0  0  0  0  0  0 
   -2.6376    2.9168    0.4280 H   0  0  0  0  0  0  0  0  0  0  0  0 
   -1.8577   -1.6846    2.3880 H   0  0  0  0  0  0  0  0  0  0  0  0 
   -0.1235   -1.8609    2.0894 H   0  0  0  0  0  0  0  0  0  0  0  0 
   -2.4982   -6.3180    2.3666 H   0  0  0  0  0  0  0  0  0  0  0  0 
   -3.9055    1.0951    0.6681 H   0  0  0  0  0  0  0  0  0  0  0  0 
  1  2  2  0  0  0  0 
  1  3  1  0  0  0  0 
  2  4  1  0  0  0  0 
  3  9  2  0  0  0  0 
  4 22  1  0  0  0  0 
  4 10  2  0  0  0  0 
  5  7  2  0  0  0  0 
  6  8  1  0  0  0  0 
  7 12  1  0  0  0  0 
  7 26  1  0  0  0  0 
  8 13  1  0  0  0  0 
  8 28  1  0  0  0  0 
  8 27  1  0  0  0  0 
  9 10  1  0  0  0  0 
  9  5  1  0  0  0  0 
 10 11  1  0  0  0  0 
 11  6  1  0  0  0  0 
 11 12  2  0  0  0  0 
 12 18  1  0  0  0  0 
 13 14  2  0  0  0  0 
 15 17  2  0  0  0  0 
 15 13  1  0  0  0  0 
 16 14  1  0  0  0  0 
 16 29  1  0  0  0  0 
 17 16  1  0  0  0  0 
 18 30  1  0  0  0  0 
 19  1  1  0  0  0  0 
 20  2  1  0  0  0  0 
 21  3  1  0  0  0  0 
 23  5  1  0  0  0  0 
 24  6  1  0  0  0  0 
 25  6  1  0  0  0  0 
M  END 
>  <HBA> 
4 
 
>  <HBD> 
2 
 
>  <TPSA> 
74.69 
 
>  <cid> 
53461 
 
>  <dipole> 
3.04 
 
>  <excitation_energy_1> 
4.008 
 
>  <excitation_energy_2> 
4.27 
 
>  <excitation_energy_3> 
4.433 
 
>  <excitation_energy_4> 
4.812 
 
>  <homo_energy> 
-5.486 
 
>  <homo_lumo_gap> 
4.517 
 
>  <logP> 
1.844 
 
>  <lumo_energy> 
-0.969 
 
>  <melting_point> 
216.98 
 
>  <molecular_refractivity> 
67.97 
 
>  <oscillator_strength_1> 
0.0864 
 
>  <oscillator_strength_2> 
0.0006 
 
>  <oscillator_strength_3> 
0.0165 
 
>  <oscillator_strength_4> 
0.0013 
 
>  <open_babel_can_smiles> 
Oc1ccc2c(c1CCc1n[nH]nn1)cccc2 
 
>  <mulliken_charges> 
30 
1   -0.136877 
2   -0.133955 
3   -0.195338 
4   -0.213945 
5   -0.202501 
6   -0.354705 
7   -0.185203 
8   -0.325145 
9   0.145871 
10   0.073589 
11   0.057221 
12   0.287168 
13   0.471979 
14   -0.311909 
15   -0.338168 
16   -0.199609 
17   -0.044834 
18   -0.650349 
19   0.127801 
20   0.131618 
21   0.126964 
22   0.148066 
23   0.132744 
24   0.172356 
25   0.169195 
26   0.11996 
27   0.175208 
28   0.17271 
29   0.370853 
30   0.409237 
 
>  <lowdin_charges> 
30 
1   -0.16572 
2   -0.153637 
3   -0.151709 
4   -0.167633 
5   -0.144852 
6   -0.271613 
7   -0.205589 
8   -0.272797 
9   -0.011473 
10   0.001983 
11   -0.044853 
12   0.092517 
13   0.024913 
14   -0.138793 
15   -0.148421 
16   -0.074534 
17   -0.065415 
18   -0.38472 
19   0.157232 
20   0.160188 
21   0.154166 
22   0.163994 
23   0.15793 
24   0.16498 
25   0.161584 
26   0.154832 
27   0.171523 
28   0.166701 
29   0.310382 
30   0.358833 
 
$$$$ 
 
