PCCDB-ID:  25861 
public computational chemistry database (PCCDB) project, http://pccdb.org 
 
 30 31  0  0  0  0  0  0  0  0999 V2000 
   -2.1806    3.2013    0.3811 C   0  0  0  0  0  0  0  0  0  0  0  0 
   -2.4018    4.0261   -0.7244 C   0  0  0  0  0  0  0  0  0  0  0  0 
   -0.9329    2.6144    0.5494 C   0  0  0  0  0  0  0  0  0  0  0  0 
   -1.3789    4.2462   -1.6409 C   0  0  0  0  0  0  0  0  0  0  0  0 
    6.2702    1.4734   -0.2878 C   0  0  0  0  0  0  0  0  0  0  0  0 
    5.5012    3.3376   -1.6051 C   0  0  0  0  0  0  0  0  0  0  0  0 
    3.8487    1.9491   -0.2878 C   0  0  0  0  0  0  0  0  0  0  0  0 
    7.5808    1.7264   -0.6800 C   0  0  0  0  0  0  0  0  0  0  0  0 
    6.8016    3.6012   -2.0040 C   0  0  0  0  0  0  0  0  0  0  0  0 
    2.7012    2.5942   -0.5906 C   0  0  0  0  0  0  0  0  0  0  0  0 
    5.1987    2.2673   -0.7355 C   0  0  0  0  0  0  0  0  0  0  0  0 
    7.8518    2.7937   -1.5423 C   0  0  0  0  0  0  0  0  0  0  0  0 
    0.1291    2.8297   -0.3471 C   0  0  0  0  0  0  0  0  0  0  0  0 
   -0.1203    3.6566   -1.4635 C   0  0  0  0  0  0  0  0  0  0  0  0 
    1.4213    2.1235   -0.0174 C   0  0  0  0  0  0  0  0  0  0  0  0 
    9.1105    3.1000   -1.9688 O   0  0  0  0  0  0  0  0  0  0  0  0 
    0.8657    3.8610   -2.3923 O   0  0  0  0  0  0  0  0  0  0  0  0 
    1.3893    1.1828    0.7774 O   0  0  0  0  0  0  0  0  0  0  0  0 
   -2.9735    3.0194    1.1002 H   0  0  0  0  0  0  0  0  0  0  0  0 
   -3.3697    4.4953   -0.8790 H   0  0  0  0  0  0  0  0  0  0  0  0 
   -0.7337    1.9584    1.3900 H   0  0  0  0  0  0  0  0  0  0  0  0 
   -1.5510    4.8770   -2.5120 H   0  0  0  0  0  0  0  0  0  0  0  0 
    6.0673    0.6417    0.3822 H   0  0  0  0  0  0  0  0  0  0  0  0 
    4.7008    3.9707   -1.9758 H   0  0  0  0  0  0  0  0  0  0  0  0 
    3.7559    1.0864    0.3706 H   0  0  0  0  0  0  0  0  0  0  0  0 
    8.3921    1.0973   -0.3181 H   0  0  0  0  0  0  0  0  0  0  0  0 
    7.0308    4.4238   -2.6740 H   0  0  0  0  0  0  0  0  0  0  0  0 
    2.6832    3.4578   -1.2416 H   0  0  0  0  0  0  0  0  0  0  0  0 
    9.7390    2.4704   -1.5817 H   0  0  0  0  0  0  0  0  0  0  0  0 
    0.5129    4.4275   -3.0964 H   0  0  0  0  0  0  0  0  0  0  0  0 
  1  3  1  0  0  0  0 
  1 19  1  0  0  0  0 
  2  1  2  0  0  0  0 
  3 21  1  0  0  0  0 
  4 14  2  0  0  0  0 
  4  2  1  0  0  0  0 
  5 23  1  0  0  0  0 
  6 11  1  0  0  0  0 
  7 25  1  0  0  0  0 
  8 26  1  0  0  0  0 
  8  5  1  0  0  0  0 
  9  6  2  0  0  0  0 
  9 12  1  0  0  0  0 
 10  7  2  0  0  0  0 
 10 15  1  0  0  0  0 
 11  7  1  0  0  0  0 
 11  5  2  0  0  0  0 
 12  8  2  0  0  0  0 
 13 15  1  0  0  0  0 
 13  3  2  0  0  0  0 
 14 13  1  0  0  0  0 
 15 18  2  0  0  0  0 
 16 29  1  0  0  0  0 
 16 12  1  0  0  0  0 
 17 14  1  0  0  0  0 
 20  2  1  0  0  0  0 
 22  4  1  0  0  0  0 
 24  6  1  0  0  0  0 
 27  9  1  0  0  0  0 
 28 10  1  0  0  0  0 
 30 17  1  0  0  0  0 
M  END 
>  <HBA> 
3 
 
>  <HBD> 
2 
 
>  <TPSA> 
57.53 
 
>  <cid> 
25861 
 
>  <dipole> 
3.12 
 
>  <excitation_energy_1> 
3.298 
 
>  <excitation_energy_2> 
3.558 
 
>  <excitation_energy_3> 
3.818 
 
>  <excitation_energy_4> 
4.406 
 
>  <homo_energy> 
-5.714 
 
>  <homo_lumo_gap> 
3.913 
 
>  <logP> 
2.994 
 
>  <lumo_energy> 
-1.801 
 
>  <melting_point> 
170.24 
 
>  <molecular_refractivity> 
70.29 
 
>  <oscillator_strength_1> 
0.0008 
 
>  <oscillator_strength_2> 
0.6848 
 
>  <oscillator_strength_3> 
0.0687 
 
>  <oscillator_strength_4> 
0.0007 
 
>  <open_babel_can_smiles> 
Oc1ccc(cc1)/C=C/C(=O)c1ccccc1O 
 
>  <mulliken_charges> 
30 
1   -0.134832 
2   -0.125961 
3   -0.170699 
4   -0.196095 
5   -0.194567 
6   -0.177802 
7   -0.158476 
8   -0.19703 
9   -0.160095 
10   -0.211006 
11   0.17086 
12   0.355968 
13   0.045045 
14   0.299093 
15   0.383265 
16   -0.635192 
17   -0.646058 
18   -0.499287 
19   0.133004 
20   0.135979 
21   0.165728 
22   0.119121 
23   0.14283 
24   0.140503 
25   0.162161 
26   0.125071 
27   0.144715 
28   0.160959 
29   0.41106 
30   0.411736 
 
>  <lowdin_charges> 
30 
1   -0.179431 
2   -0.13228 
3   -0.118629 
4   -0.215031 
5   -0.136145 
6   -0.13418 
7   -0.100251 
8   -0.215951 
9   -0.181716 
10   -0.219446 
11   -0.026287 
12   0.111692 
13   -0.07281 
14   0.1089 
15   0.154117 
16   -0.37083 
17   -0.37294 
18   -0.274258 
19   0.161508 
20   0.160953 
21   0.179371 
22   0.153397 
23   0.164311 
24   0.165237 
25   0.172295 
26   0.157326 
27   0.170014 
28   0.168637 
29   0.361693 
30   0.360733 
 
$$$$ 
 
