PCCDB-ID:  13664 
public computational chemistry database (PCCDB) project, http://pccdb.org 
 
 26 28  0  0  0  0  0  0  0  0999 V2000 
    3.0518   -1.1272    0.0004 C   0  0  0  0  0  0  0  0  0  0  0  0 
   -3.0999   -1.1275    0.3235 C   0  0  0  0  0  0  0  0  0  0  0  0 
    3.4445    0.2246    0.0617 C   0  0  0  0  0  0  0  0  0  0  0  0 
   -3.4640    0.1975   -0.3676 C   0  0  0  0  0  0  0  0  0  0  0  0 
    1.7081   -1.4832   -0.0269 C   0  0  0  0  0  0  0  0  0  0  0  0 
   -1.6862   -1.6086   -0.0618 C   0  0  0  0  0  0  0  0  0  0  0  0 
    2.5012    1.2473    0.0975 C   0  0  0  0  0  0  0  0  0  0  0  0 
   -2.5190    1.3409    0.0567 C   0  0  0  0  0  0  0  0  0  0  0  0 
    0.7307   -0.4744    0.0081 C   0  0  0  0  0  0  0  0  0  0  0  0 
   -0.7097   -0.4671   -0.0052 C   0  0  0  0  0  0  0  0  0  0  0  0 
    1.1519    0.8849    0.0710 C   0  0  0  0  0  0  0  0  0  0  0  0 
   -1.1059    0.8467    0.0437 C   0  0  0  0  0  0  0  0  0  0  0  0 
    0.0116    1.6659    0.0935 N   0  0  0  0  0  0  0  0  0  0  0  0 
    3.8143   -1.9011   -0.0253 H   0  0  0  0  0  0  0  0  0  0  0  0 
   -3.8390   -1.8975    0.0709 H   0  0  0  0  0  0  0  0  0  0  0  0 
   -3.1494   -0.9875    1.4125 H   0  0  0  0  0  0  0  0  0  0  0  0 
    4.5019    0.4741    0.0816 H   0  0  0  0  0  0  0  0  0  0  0  0 
   -4.5005    0.4741   -0.1407 H   0  0  0  0  0  0  0  0  0  0  0  0 
   -3.4012    0.0657   -1.4564 H   0  0  0  0  0  0  0  0  0  0  0  0 
    1.4168   -2.5296   -0.0743 H   0  0  0  0  0  0  0  0  0  0  0  0 
   -1.7091   -2.0468   -1.0721 H   0  0  0  0  0  0  0  0  0  0  0  0 
   -1.3756   -2.4210    0.6092 H   0  0  0  0  0  0  0  0  0  0  0  0 
    2.8055    2.2901    0.1458 H   0  0  0  0  0  0  0  0  0  0  0  0 
   -2.7917    1.6957    1.0633 H   0  0  0  0  0  0  0  0  0  0  0  0 
   -2.6421    2.2030   -0.6145 H   0  0  0  0  0  0  0  0  0  0  0  0 
   -0.0065    2.6734    0.1247 H   0  0  0  0  0  0  0  0  0  0  0  0 
  1  3  1  0  0  0  0 
  2 16  1  0  0  0  0 
  3 17  1  0  0  0  0 
  3  7  2  0  0  0  0 
  4 18  1  0  0  0  0 
  4  8  1  0  0  0  0 
  4  2  1  0  0  0  0 
  5  1  2  0  0  0  0 
  5  9  1  0  0  0  0 
  6 10  1  0  0  0  0 
  6  2  1  0  0  0  0 
  6 22  1  0  0  0  0 
  7 23  1  0  0  0  0 
  8 24  1  0  0  0  0 
  9 11  2  0  0  0  0 
 10  9  1  0  0  0  0 
 10 12  2  0  0  0  0 
 11 13  1  0  0  0  0 
 11  7  1  0  0  0  0 
 12  8  1  0  0  0  0 
 12 13  1  0  0  0  0 
 13 26  1  0  0  0  0 
 14  1  1  0  0  0  0 
 15  2  1  0  0  0  0 
 19  4  1  0  0  0  0 
 20  5  1  0  0  0  0 
 21  6  1  0  0  0  0 
 25  8  1  0  0  0  0 
M  END 
>  <HBA> 
0 
 
>  <HBD> 
1 
 
>  <TPSA> 
15.79 
 
>  <cid> 
13664 
 
>  <dipole> 
2.39 
 
>  <excitation_energy_1> 
4.514 
 
>  <excitation_energy_2> 
4.569 
 
>  <excitation_energy_3> 
4.773 
 
>  <excitation_energy_4> 
4.898 
 
>  <homo_energy> 
-5.097 
 
>  <homo_lumo_gap> 
5.159 
 
>  <logP> 
3.047 
 
>  <lumo_energy> 
0.063 
 
>  <melting_point> 
125.85 
 
>  <molecular_refractivity> 
55.73 
 
>  <oscillator_strength_1> 
0.0734 
 
>  <oscillator_strength_2> 
0.0219 
 
>  <oscillator_strength_3> 
0.011 
 
>  <oscillator_strength_4> 
0.0009 
 
>  <open_babel_can_smiles> 
C1CCc2c(C1)[nH]c1c2cccc1 
 
>  <mulliken_charges> 
26 
1   -0.143203 
2   -0.268018 
3   -0.150023 
4   -0.263969 
5   -0.208314 
6   -0.333835 
7   -0.174509 
8   -0.343445 
9   0.062443 
10   0.04593 
11   0.330336 
12   0.3063 
13   -0.769315 
14   0.116302 
15   0.132091 
16   0.138017 
17   0.11832 
18   0.133308 
19   0.142682 
20   0.119272 
21   0.141842 
22   0.141532 
23   0.116191 
24   0.150947 
25   0.141426 
26   0.31769 
 
>  <lowdin_charges> 
26 
1   -0.179543 
2   -0.272569 
3   -0.166465 
4   -0.268213 
5   -0.164586 
6   -0.26988 
7   -0.18843 
8   -0.278154 
9   -0.033229 
10   -0.079231 
11   0.032524 
12   0.012039 
13   -0.206284 
14   0.153553 
15   0.145643 
16   0.140103 
17   0.152115 
18   0.144296 
19   0.142664 
20   0.15275 
21   0.144383 
22   0.150118 
23   0.151594 
24   0.149759 
25   0.149969 
26   0.285074 
 
$$$$ 
 
