PCCDB-ID:  14323 
public computational chemistry database (PCCDB) project, http://pccdb.org 
 
 25 25  0  0  0  0  0  0  0  0999 V2000 
    6.0320    1.0335    2.6682 C   0  0  0  0  0  0  0  0  0  0  0  0 
    4.6670    1.4997    2.1494 C   0  0  0  0  0  0  0  0  0  0  0  0 
   -0.9551    0.9996    2.0694 C   0  0  0  0  0  0  0  0  0  0  0  0 
   -0.5308    0.4257    0.8697 C   0  0  0  0  0  0  0  0  0  0  0  0 
   -0.1760    0.8360    3.2174 C   0  0  0  0  0  0  0  0  0  0  0  0 
    4.0514    0.6097    1.0440 C   0  0  0  0  0  0  0  0  0  0  0  0 
    0.6609   -0.2973    0.8117 C   0  0  0  0  0  0  0  0  0  0  0  0 
    1.0151    0.1131    3.1691 C   0  0  0  0  0  0  0  0  0  0  0  0 
    1.4550   -0.4523    1.9606 C   0  0  0  0  0  0  0  0  0  0  0  0 
    3.7277   -0.7983    1.5133 C   0  0  0  0  0  0  0  0  0  0  0  0 
    2.6166   -1.2433    1.9338 N   0  0  0  0  0  0  0  0  0  0  0  0 
    4.7719   -1.6782    1.5256 O   0  0  0  0  0  0  0  0  0  0  0  0 
    6.4274    1.7388    3.4069 H   0  0  0  0  0  0  0  0  0  0  0  0 
    6.7679    0.9714    1.8545 H   0  0  0  0  0  0  0  0  0  0  0  0 
    5.9723    0.0518    3.1504 H   0  0  0  0  0  0  0  0  0  0  0  0 
    4.7604    2.5141    1.7417 H   0  0  0  0  0  0  0  0  0  0  0  0 
    3.9560    1.5640    2.9816 H   0  0  0  0  0  0  0  0  0  0  0  0 
   -1.8852    1.5591    2.1122 H   0  0  0  0  0  0  0  0  0  0  0  0 
   -1.1307    0.5381   -0.0301 H   0  0  0  0  0  0  0  0  0  0  0  0 
   -0.4989    1.2703    4.1603 H   0  0  0  0  0  0  0  0  0  0  0  0 
    4.7384    0.5582    0.1865 H   0  0  0  0  0  0  0  0  0  0  0  0 
    3.1284    1.0726    0.6853 H   0  0  0  0  0  0  0  0  0  0  0  0 
    0.9824   -0.7607   -0.1170 H   0  0  0  0  0  0  0  0  0  0  0  0 
    1.6139   -0.0317    4.0640 H   0  0  0  0  0  0  0  0  0  0  0  0 
    5.5599   -1.2378    1.1740 H   0  0  0  0  0  0  0  0  0  0  0  0 
  1 15  1  0  0  0  0 
  1 13  1  0  0  0  0 
  2  1  1  0  0  0  0 
  2 17  1  0  0  0  0 
  3 18  1  0  0  0  0 
  3  5  2  0  0  0  0 
  4  3  1  0  0  0  0 
  5 20  1  0  0  0  0 
  6 10  1  0  0  0  0 
  6  2  1  0  0  0  0 
  7  4  2  0  0  0  0 
  7  9  1  0  0  0  0 
  8  5  1  0  0  0  0 
  8 24  1  0  0  0  0 
  9  8  2  0  0  0  0 
 10 12  1  0  0  0  0 
 10 11  2  0  0  0  0 
 11  9  1  0  0  0  0 
 14  1  1  0  0  0  0 
 16  2  1  0  0  0  0 
 19  4  1  0  0  0  0 
 21  6  1  0  0  0  0 
 22  6  1  0  0  0  0 
 23  7  1  0  0  0  0 
 25 12  1  0  0  0  0 
M  END 
>  <HBA> 
2 
 
>  <HBD> 
1 
 
>  <TPSA> 
29.1 
 
>  <cid> 
14323 
 
>  <dipole> 
3.92 
 
>  <excitation_energy_1> 
4.646 
 
>  <excitation_energy_2> 
4.976 
 
>  <excitation_energy_3> 
5.264 
 
>  <excitation_energy_4> 
5.468 
 
>  <homo_energy> 
-5.714 
 
>  <homo_lumo_gap> 
5.78 
 
>  <logP> 
2.498 
 
>  <lumo_energy> 
0.065 
 
>  <melting_point> 
57.27 
 
>  <molecular_refractivity> 
50.37 
 
>  <oscillator_strength_1> 
0.0088 
 
>  <oscillator_strength_2> 
0.0111 
 
>  <oscillator_strength_3> 
0.0559 
 
>  <oscillator_strength_4> 
0.0476 
 
>  <open_babel_can_smiles> 
CCC/C(=N\c1ccccc1)/O 
 
>  <mulliken_charges> 
25 
1   -0.472459 
2   -0.246657 
3   -0.131761 
4   -0.138354 
5   -0.138775 
6   -0.36165 
7   -0.152948 
8   -0.152378 
9   0.227145 
10   0.479806 
11   -0.464421 
12   -0.574779 
13   0.158188 
14   0.135191 
15   0.166039 
16   0.147992 
17   0.160639 
18   0.123036 
19   0.126693 
20   0.126708 
21   0.139253 
22   0.180252 
23   0.125665 
24   0.127283 
25   0.410291 
 
>  <lowdin_charges> 
25 
1   -0.459241 
2   -0.266598 
3   -0.175772 
4   -0.15254 
5   -0.15158 
6   -0.312531 
7   -0.189014 
8   -0.18528 
9   0.051871 
10   0.14344 
11   -0.172967 
12   -0.359921 
13   0.160011 
14   0.142459 
15   0.15594 
16   0.149404 
17   0.155473 
18   0.155133 
19   0.156602 
20   0.15633 
21   0.148956 
22   0.175426 
23   0.158261 
24   0.159664 
25   0.356474 
 
$$$$ 
 
