PCCDB-ID:  20547 
public computational chemistry database (PCCDB) project, http://pccdb.org 
 
 21 21  0  0  1  0  0  0  0  0999 V2000 
    1.8067   -1.6851    0.9164 C   0  0  0  0  0  0  0  0  0  0  0  0 
    0.3645   -2.4077   -4.3699 C   0  0  0  0  0  0  0  0  0  0  0  0 
    0.2659   -1.0807   -3.9445 C   0  0  0  0  0  0  0  0  0  0  0  0 
    1.3239   -3.2457   -3.8021 C   0  0  0  0  0  0  0  0  0  0  0  0 
    1.1217   -0.5962   -2.9570 C   0  0  0  0  0  0  0  0  0  0  0  0 
    2.1832   -2.7643   -2.8117 C   0  0  0  0  0  0  0  0  0  0  0  0 
    4.1251   -1.7156   -0.9515 C   0  0  0  0  0  0  0  0  0  0  0  0 
    2.1058   -0.5463   -0.0293 C   0  0  0  0  0  0  0  0  0  0  0  0 
    2.0880   -1.4357   -2.3864 C   0  0  0  0  0  0  0  0  0  0  0  0 
    2.9865   -0.8575   -1.2849 C   0  0  2  0  0  0  0  0  0  0  0  0 
    5.0190   -2.3944   -0.6540 N   0  0  0  0  0  0  0  0  0  0  0  0 
    1.6662    0.5739    0.1060 O   0  0  0  0  0  0  0  0  0  0  0  0 
    2.7191   -1.9791    1.4488 H   0  0  0  0  0  0  0  0  0  0  0  0 
    1.4617   -2.5651    0.3617 H   0  0  0  0  0  0  0  0  0  0  0  0 
    1.0479   -1.3715    1.6352 H   0  0  0  0  0  0  0  0  0  0  0  0 
   -0.3020   -2.7844   -5.1407 H   0  0  0  0  0  0  0  0  0  0  0  0 
   -0.4770   -0.4201   -4.3828 H   0  0  0  0  0  0  0  0  0  0  0  0 
    1.4103   -4.2781   -4.1294 H   0  0  0  0  0  0  0  0  0  0  0  0 
    1.0370    0.4325   -2.6172 H   0  0  0  0  0  0  0  0  0  0  0  0 
    2.9363   -3.4198   -2.3837 H   0  0  0  0  0  0  0  0  0  0  0  0 
    3.3761    0.1132   -1.6110 H   0  0  0  0  0  0  0  0  0  0  0  0 
  1 13  1  0  0  0  0 
  1 15  1  0  0  0  0 
  2  3  2  0  0  0  0 
  2  4  1  0  0  0  0 
  3  5  1  0  0  0  0 
  4  6  2  0  0  0  0 
  5 19  1  0  0  0  0 
  5  9  2  0  0  0  0 
  6  9  1  0  0  0  0 
  6 20  1  0  0  0  0 
  7 11  3  0  0  0  0 
  8 12  2  0  0  0  0 
  8  1  1  0  0  0  0 
  9 10  1  0  0  0  0 
 10 21  1  6  0  0  0 
 10  7  1  0  0  0  0 
 10  8  1  0  0  0  0 
 14  1  1  0  0  0  0 
 16  2  1  0  0  0  0 
 17  3  1  0  0  0  0 
 18  4  1  0  0  0  0 
M  END 
>  <HBA> 
2 
 
>  <HBD> 
0 
 
>  <TPSA> 
40.86 
 
>  <cid> 
20547 
 
>  <dipole> 
2.92 
 
>  <excitation_energy_1> 
4.247 
 
>  <excitation_energy_2> 
5.03 
 
>  <excitation_energy_3> 
5.258 
 
>  <excitation_energy_4> 
5.498 
 
>  <homo_energy> 
-6.914 
 
>  <homo_lumo_gap> 
5.671 
 
>  <logP> 
1.883 
 
>  <lumo_energy> 
-1.244 
 
>  <melting_point> 
60.45 
 
>  <molecular_refractivity> 
45.78 
 
>  <oscillator_strength_1> 
0.0148 
 
>  <oscillator_strength_2> 
0.0057 
 
>  <oscillator_strength_3> 
0.0309 
 
>  <oscillator_strength_4> 
0.031 
 
>  <open_babel_can_smiles> 
N#C[C@@H](c1ccccc1)C(=O)C 
 
>  <mulliken_charges> 
21 
1   -0.539541 
2   -0.121641 
3   -0.132452 
4   -0.13547 
5   -0.16338 
6   -0.179828 
7   0.360271 
8   0.478498 
9   0.12563 
10   -0.313832 
11   -0.484339 
12   -0.421313 
13   0.200198 
14   0.185716 
15   0.188644 
16   0.138476 
17   0.141254 
18   0.141636 
19   0.155753 
20   0.158363 
21   0.217359 
 
>  <lowdin_charges> 
21 
1   -0.473507 
2   -0.150849 
3   -0.1494 
4   -0.147454 
5   -0.157607 
6   -0.16719 
7   -0.014966 
8   0.177796 
9   -0.00856 
10   -0.15606 
11   -0.120439 
12   -0.213157 
13   0.18874 
14   0.180257 
15   0.180321 
16   0.163272 
17   0.164697 
18   0.162355 
19   0.168891 
20   0.173432 
21   0.199427 
 
$$$$ 
 
