PCCDB-ID:  13857 
public computational chemistry database (PCCDB) project, http://pccdb.org 
 
 15 15  0  0  0  0  0  0  0  0999 V2000 
    0.8997    0.0680    0.0797 C   0  0  0  0  0  0  0  0  0  0  0  0 
    3.1413   -1.1323   -0.0641 C   0  0  0  0  0  0  0  0  0  0  0  0 
    3.1516    1.2426   -0.0581 C   0  0  0  0  0  0  0  0  0  0  0  0 
    4.5222   -1.1264   -0.1541 C   0  0  0  0  0  0  0  0  0  0  0  0 
    4.5296    1.2258   -0.1478 C   0  0  0  0  0  0  0  0  0  0  0  0 
    2.4045    0.0562   -0.0131 C   0  0  0  0  0  0  0  0  0  0  0  0 
    5.2322    0.0459   -0.1964 N   0  3  0  0  0  0  0  0  0  0  0  0 
    6.5061    0.0441   -0.2774 O   0  5  0  0  0  0  0  0  0  0  0  0 
    0.5019   -0.9432    0.2090 H   0  0  0  0  0  0  0  0  0  0  0  0 
    0.4439    0.4901   -0.8252 H   0  0  0  0  0  0  0  0  0  0  0  0 
    0.5541    0.6739    0.9261 H   0  0  0  0  0  0  0  0  0  0  0  0 
    2.6376   -2.0946   -0.0336 H   0  0  0  0  0  0  0  0  0  0  0  0 
    2.6558    2.2091   -0.0225 H   0  0  0  0  0  0  0  0  0  0  0  0 
    5.1427   -2.0116   -0.1958 H   0  0  0  0  0  0  0  0  0  0  0  0 
    5.1583    2.1053   -0.1853 H   0  0  0  0  0  0  0  0  0  0  0  0 
  1  9  1  0  0  0  0 
  1 11  1  0  0  0  0 
  2 12  1  0  0  0  0 
  2  6  2  0  0  0  0 
  3 13  1  0  0  0  0 
  3  6  1  0  0  0  0 
  4  2  1  0  0  0  0 
  5  3  2  0  0  0  0 
  6  1  1  0  0  0  0 
  7  4  2  0  0  0  0 
  7  5  1  0  0  0  0 
  8  7  1  0  0  0  0 
 10  1  1  0  0  0  0 
 14  4  1  0  0  0  0 
 15  5  1  0  0  0  0 
M  CHG  2   7   1   8  -1 
M  END 
>  <HBA> 
1 
 
>  <HBD> 
0 
 
>  <TPSA> 
25.46 
 
>  <cid> 
13857 
 
>  <dipole> 
4.45 
 
>  <excitation_energy_1> 
4.098 
 
>  <excitation_energy_2> 
4.121 
 
>  <excitation_energy_3> 
4.643 
 
>  <excitation_energy_4> 
4.818 
 
>  <homo_energy> 
-5.589 
 
>  <homo_lumo_gap> 
4.691 
 
>  <logP> 
1.423 
 
>  <lumo_energy> 
-0.898 
 
>  <melting_point> 
22.66 
 
>  <molecular_refractivity> 
32.57 
 
>  <oscillator_strength_1> 
0.02 
 
>  <oscillator_strength_2> 
0.0 
 
>  <oscillator_strength_3> 
0.2723 
 
>  <oscillator_strength_4> 
0.0002 
 
>  <open_babel_can_smiles> 
[O-][n+]1ccc(cc1)C 
 
>  <mulliken_charges> 
15 
1   -0.528497 
2   -0.220242 
3   -0.215543 
4   0.074254 
5   0.073961 
6   0.192137 
7   -0.003111 
8   -0.524285 
9   0.161371 
10   0.170601 
11   0.168294 
12   0.146752 
13   0.147127 
14   0.178369 
15   0.178815 
 
>  <lowdin_charges> 
15 
1   -0.440857 
2   -0.160823 
3   -0.158095 
4   -0.12672 
5   -0.124213 
6   -0.00956 
7   0.215806 
8   -0.39361 
9   0.160216 
10   0.16534 
11   0.164817 
12   0.169456 
13   0.16975 
14   0.184167 
15   0.184325 
 
$$$$ 
 
