PCCDB-ID:  69256 
public computational chemistry database (PCCDB) project, http://pccdb.org 
 
 19 19  0  0  0  0  0  0  0  0999 V2000 
   -0.6857    1.2071    0.0075 C   0  0  0  0  0  0  0  0  0  0  0  0 
   -0.6509   -1.2122   -0.0650 C   0  0  0  0  0  0  0  0  0  0  0  0 
   -1.3753   -0.0143   -0.0270 C   0  0  0  0  0  0  0  0  0  0  0  0 
    0.7068    1.2069    0.0204 C   0  0  0  0  0  0  0  0  0  0  0  0 
    0.7449   -1.2067   -0.0636 C   0  0  0  0  0  0  0  0  0  0  0  0 
    1.4387    0.0130   -0.0189 C   0  0  0  0  0  0  0  0  0  0  0  0 
   -2.8675   -0.0415   -0.0108 C   0  0  0  0  0  0  0  0  0  0  0  0 
   -3.6215   -0.8787    0.5802 N   0  0  0  0  0  0  0  0  0  0  0  0 
    1.4821    2.3419    0.0754 O   0  0  0  0  0  0  0  0  0  0  0  0 
    1.5012   -2.3389   -0.1148 O   0  0  0  0  0  0  0  0  0  0  0  0 
    2.7971    0.0153   -0.0130 O   0  0  0  0  0  0  0  0  0  0  0  0 
   -3.4758    0.9738   -0.6954 O   0  0  0  0  0  0  0  0  0  0  0  0 
   -1.2297    2.1462    0.0779 H   0  0  0  0  0  0  0  0  0  0  0  0 
   -1.1827   -2.1592   -0.1242 H   0  0  0  0  0  0  0  0  0  0  0  0 
   -3.0522   -1.5267    1.1267 H   0  0  0  0  0  0  0  0  0  0  0  0 
    0.9165    3.1239    0.1591 H   0  0  0  0  0  0  0  0  0  0  0  0 
    0.9106   -3.1077   -0.1375 H   0  0  0  0  0  0  0  0  0  0  0  0 
    3.0827    0.9443    0.0309 H   0  0  0  0  0  0  0  0  0  0  0  0 
   -2.8297    1.3591   -1.3078 H   0  0  0  0  0  0  0  0  0  0  0  0 
  1  4  1  0  0  0  0 
  1 13  1  0  0  0  0 
  2  5  2  0  0  0  0 
  2  3  1  0  0  0  0 
  3  7  1  0  0  0  0 
  3  1  2  0  0  0  0 
  4  9  1  0  0  0  0 
  5  6  1  0  0  0  0 
  6 11  1  0  0  0  0 
  6  4  2  0  0  0  0 
  7  8  2  0  0  0  0 
  8 15  1  0  0  0  0 
  9 16  1  0  0  0  0 
 10  5  1  0  0  0  0 
 11 18  1  0  0  0  0 
 12  7  1  0  0  0  0 
 14  2  1  0  0  0  0 
 17 10  1  0  0  0  0 
 19 12  1  0  0  0  0 
M  END 
>  <HBA> 
5 
 
>  <HBD> 
4 
 
>  <TPSA> 
103.78 
 
>  <cid> 
69256 
 
>  <dipole> 
3.34 
 
>  <excitation_energy_1> 
4.68 
 
>  <excitation_energy_2> 
4.739 
 
>  <excitation_energy_3> 
4.782 
 
>  <excitation_energy_4> 
5.195 
 
>  <homo_energy> 
-5.946 
 
>  <homo_lumo_gap> 
5.159 
 
>  <logP> 
0.603 
 
>  <lumo_energy> 
-0.786 
 
>  <melting_point> 
216.05 
 
>  <molecular_refractivity> 
40.61 
 
>  <oscillator_strength_1> 
0.0059 
 
>  <oscillator_strength_2> 
0.0016 
 
>  <oscillator_strength_3> 
0.1854 
 
>  <oscillator_strength_4> 
0.0009 
 
>  <open_babel_can_smiles> 
OC(=N)c1cc(O)c(c(c1)O)O 
 
>  <mulliken_charges> 
19 
1   -0.272963 
2   -0.255865 
3   0.065743 
4   0.315412 
5   0.318706 
6   0.289819 
7   0.417178 
8   -0.583889 
9   -0.67788 
10   -0.628085 
11   -0.634318 
12   -0.578576 
13   0.136051 
14   0.133263 
15   0.285123 
16   0.42225 
17   0.413441 
18   0.43104 
19   0.403551 
 
>  <lowdin_charges> 
19 
1   -0.234919 
2   -0.220522 
3   -0.049246 
4   0.066358 
5   0.086848 
6   0.061909 
7   0.126927 
8   -0.393787 
9   -0.39487 
10   -0.360244 
11   -0.357961 
12   -0.36777 
13   0.161616 
14   0.162431 
15   0.258712 
16   0.369416 
17   0.363338 
18   0.366731 
19   0.355032 
 
$$$$ 
 
