PCCDB-ID:  20930 
public computational chemistry database (PCCDB) project, http://pccdb.org 
 
 19 18  0  0  1  0  0  0  0  0999 V2000 
    1.4907   -3.1250    2.0214 C   0  0  0  0  0  0  0  0  0  0  0  0 
    6.1905    1.0128    0.9699 C   0  0  0  0  0  0  0  0  0  0  0  0 
    2.7996   -2.6162    1.4891 C   0  0  0  0  0  0  0  0  0  0  0  0 
    4.9030    0.4062    1.5322 C   0  0  0  0  0  0  0  0  0  0  0  0 
    3.0914   -1.3329    1.2637 C   0  0  0  0  0  0  0  0  0  0  0  0 
    4.4164   -0.8237    0.7407 C   0  0  2  0  0  0  0  0  0  0  0  0 
    5.4149   -1.8427    0.6940 O   0  0  0  0  0  0  0  0  0  0  0  0 
    1.0222   -3.8246    1.3160 H   0  0  0  0  0  0  0  0  0  0  0  0 
    0.7843   -2.3093    2.2093 H   0  0  0  0  0  0  0  0  0  0  0  0 
    1.6293   -3.6768    2.9612 H   0  0  0  0  0  0  0  0  0  0  0  0 
    6.5334    1.8530    1.5839 H   0  0  0  0  0  0  0  0  0  0  0  0 
    6.0377    1.3845   -0.0508 H   0  0  0  0  0  0  0  0  0  0  0  0 
    6.9868    0.2635    0.9337 H   0  0  0  0  0  0  0  0  0  0  0  0 
    3.5566   -3.3662    1.2603 H   0  0  0  0  0  0  0  0  0  0  0  0 
    4.1021    1.1582    1.5409 H   0  0  0  0  0  0  0  0  0  0  0  0 
    5.0508    0.1065    2.5809 H   0  0  0  0  0  0  0  0  0  0  0  0 
    2.3395   -0.5671    1.4625 H   0  0  0  0  0  0  0  0  0  0  0  0 
    4.2944   -0.5228   -0.3106 H   0  0  0  0  0  0  0  0  0  0  0  0 
    5.5227   -2.1670    1.6040 H   0  0  0  0  0  0  0  0  0  0  0  0 
  1  9  1  0  0  0  0 
  1 10  1  0  0  0  0 
  2  4  1  0  0  0  0 
  2 11  1  0  0  0  0 
  3  1  1  0  0  0  0 
  4 15  1  0  0  0  0 
  4 16  1  0  0  0  0 
  5 17  1  0  0  0  0 
  5  3  2  0  0  0  0 
  6 18  1  6  0  0  0 
  6  5  1  0  0  0  0 
  6  4  1  0  0  0  0 
  7  6  1  0  0  0  0 
  7 19  1  0  0  0  0 
  8  1  1  0  0  0  0 
 12  2  1  0  0  0  0 
 13  2  1  0  0  0  0 
 14  3  1  0  0  0  0 
M  END 
>  <HBA> 
1 
 
>  <HBD> 
1 
 
>  <TPSA> 
20.23 
 
>  <cid> 
20930 
 
>  <dipole> 
1.58 
 
>  <excitation_energy_1> 
6.141 
 
>  <excitation_energy_2> 
6.512 
 
>  <excitation_energy_3> 
6.61 
 
>  <excitation_energy_4> 
6.644 
 
>  <homo_energy> 
-6.569 
 
>  <homo_lumo_gap> 
7.276 
 
>  <logP> 
1.333 
 
>  <lumo_energy> 
0.708 
 
>  <melting_point> 
1.85 
 
>  <molecular_refractivity> 
31.64 
 
>  <oscillator_strength_1> 
0.0323 
 
>  <oscillator_strength_2> 
0.0242 
 
>  <oscillator_strength_3> 
0.0285 
 
>  <oscillator_strength_4> 
0.1008 
 
>  <open_babel_can_smiles> 
C/C=C/[C@@H](CC)O 
 
>  <mulliken_charges> 
19 
1   -0.486525 
2   -0.441331 
3   -0.099394 
4   -0.271157 
5   -0.131508 
6   0.113264 
7   -0.618386 
8   0.157326 
9   0.151179 
10   0.153277 
11   0.140147 
12   0.141809 
13   0.159819 
14   0.129729 
15   0.131801 
16   0.126602 
17   0.116004 
18   0.14612 
19   0.381223 
 
>  <lowdin_charges> 
19 
1   -0.439819 
2   -0.446941 
3   -0.167391 
4   -0.288451 
5   -0.197922 
6   0.002664 
7   -0.454062 
8   0.159199 
9   0.154374 
10   0.155713 
11   0.149826 
12   0.146691 
13   0.15692 
14   0.153712 
15   0.144983 
16   0.136685 
17   0.149873 
18   0.147325 
19   0.336622 
 
$$$$ 
 
