PCCDB-ID:  17244 
public computational chemistry database (PCCDB) project, http://pccdb.org 
 
 17 16  0  0  0  0  0  0  0  0999 V2000 
    0.5907    0.4016   -1.5657 C   0  0  0  0  0  0  0  0  0  0  0  0 
    6.8222   -0.0528   -0.1361 C   0  0  0  0  0  0  0  0  0  0  0  0 
    2.0783    0.4151   -1.7189 C   0  0  0  0  0  0  0  0  0  0  0  0 
    5.3319   -0.1114    0.1874 C   0  0  0  0  0  0  0  0  0  0  0  0 
    2.9672    0.1577   -0.7491 C   0  0  0  0  0  0  0  0  0  0  0  0 
    4.4338    0.1979   -1.0056 C   0  0  0  0  0  0  0  0  0  0  0  0 
    4.8969    0.4627   -2.1061 O   0  0  0  0  0  0  0  0  0  0  0  0 
    0.1357   -0.3234   -2.2542 H   0  0  0  0  0  0  0  0  0  0  0  0 
    0.1646    1.3804   -1.8248 H   0  0  0  0  0  0  0  0  0  0  0  0 
    0.2833    0.1498   -0.5457 H   0  0  0  0  0  0  0  0  0  0  0  0 
    7.4213   -0.2857    0.7505 H   0  0  0  0  0  0  0  0  0  0  0  0 
    7.1045    0.9417   -0.4945 H   0  0  0  0  0  0  0  0  0  0  0  0 
    7.0781   -0.7658   -0.9254 H   0  0  0  0  0  0  0  0  0  0  0  0 
    2.4781    0.6551   -2.7043 H   0  0  0  0  0  0  0  0  0  0  0  0 
    5.0721    0.5915    0.9938 H   0  0  0  0  0  0  0  0  0  0  0  0 
    5.0476   -1.1026    0.5730 H   0  0  0  0  0  0  0  0  0  0  0  0 
    2.6362   -0.0891    0.2593 H   0  0  0  0  0  0  0  0  0  0  0  0 
  1 10  1  0  0  0  0 
  2  4  1  0  0  0  0 
  2 11  1  0  0  0  0 
  3  1  1  0  0  0  0 
  3  5  2  0  0  0  0 
  4 16  1  0  0  0  0 
  4 15  1  0  0  0  0 
  5 17  1  0  0  0  0 
  6  5  1  0  0  0  0 
  6  4  1  0  0  0  0 
  7  6  2  0  0  0  0 
  8  1  1  0  0  0  0 
  9  1  1  0  0  0  0 
 12  2  1  0  0  0  0 
 13  2  1  0  0  0  0 
 14  3  1  0  0  0  0 
M  END 
>  <HBA> 
1 
 
>  <HBD> 
0 
 
>  <TPSA> 
17.07 
 
>  <cid> 
17244 
 
>  <dipole> 
2.78 
 
>  <excitation_energy_1> 
3.747 
 
>  <excitation_energy_2> 
5.64 
 
>  <excitation_energy_3> 
6.209 
 
>  <excitation_energy_4> 
6.609 
 
>  <homo_energy> 
-6.534 
 
>  <homo_lumo_gap> 
5.328 
 
>  <logP> 
1.542 
 
>  <lumo_energy> 
-1.205 
 
>  <melting_point> 
4.62 
 
>  <molecular_refractivity> 
30.68 
 
>  <oscillator_strength_1> 
0.0 
 
>  <oscillator_strength_2> 
0.3615 
 
>  <oscillator_strength_3> 
0.016 
 
>  <oscillator_strength_4> 
0.001 
 
>  <open_babel_can_smiles> 
C/C=C/C(=O)CC 
 
>  <mulliken_charges> 
17 
1   -0.497853 
2   -0.433149 
3   -0.054165 
4   -0.359139 
5   -0.182204 
6   0.438188 
7   -0.471444 
8   0.168908 
9   0.168943 
10   0.159322 
11   0.137307 
12   0.160463 
13   0.160728 
14   0.165779 
15   0.15813 
16   0.158187 
17   0.122 
 
>  <lowdin_charges> 
17 
1   -0.44006 
2   -0.440699 
3   -0.089547 
4   -0.307601 
5   -0.225425 
6   0.15622 
7   -0.254196 
8   0.167712 
9   0.166353 
10   0.157319 
11   0.149372 
12   0.158336 
13   0.159701 
14   0.170729 
15   0.160479 
16   0.159478 
17   0.151829 
 
$$$$ 
 
