PCCDB-ID:  17008 
public computational chemistry database (PCCDB) project, http://pccdb.org 
 
 23 22  0  0  0  0  0  0  0  0999 V2000 
    1.0542    0.0384    0.1941 C   0  0  0  0  0  0  0  0  0  0  0  0 
    3.1447   -0.6903    1.4087 C   0  0  0  0  0  0  0  0  0  0  0  0 
    6.9279   -1.4385   -4.0759 C   0  0  0  0  0  0  0  0  0  0  0  0 
    3.0931   -0.5972   -1.1497 C   0  0  0  0  0  0  0  0  0  0  0  0 
    4.6070   -0.5014   -1.3562 C   0  0  0  0  0  0  0  0  0  0  0  0 
    2.5899    0.0250    0.1668 C   0  0  0  0  0  0  0  0  0  0  0  0 
    5.0500   -1.0119   -2.7140 C   0  0  0  0  0  0  0  0  0  0  0  0 
    4.3213   -1.3974   -3.6023 O   0  0  0  0  0  0  0  0  0  0  0  0 
    6.4001   -0.9803   -2.8212 O   0  0  0  0  0  0  0  0  0  0  0  0 
    0.6776    0.5133    1.1078 H   0  0  0  0  0  0  0  0  0  0  0  0 
    0.6527   -0.9827    0.1603 H   0  0  0  0  0  0  0  0  0  0  0  0 
    0.6440    0.5852   -0.6632 H   0  0  0  0  0  0  0  0  0  0  0  0 
    2.7534   -0.2386    2.3278 H   0  0  0  0  0  0  0  0  0  0  0  0 
    4.2382   -0.6435    1.4611 H   0  0  0  0  0  0  0  0  0  0  0  0 
    2.8551   -1.7496    1.4102 H   0  0  0  0  0  0  0  0  0  0  0  0 
    8.0112   -1.3470   -3.9890 H   0  0  0  0  0  0  0  0  0  0  0  0 
    6.5561   -0.8226   -4.8993 H   0  0  0  0  0  0  0  0  0  0  0  0 
    6.6443   -2.4789   -4.2568 H   0  0  0  0  0  0  0  0  0  0  0  0 
    2.7885   -1.6517   -1.1957 H   0  0  0  0  0  0  0  0  0  0  0  0 
    2.5965   -0.1076   -1.9959 H   0  0  0  0  0  0  0  0  0  0  0  0 
    5.1636   -1.0607   -0.5949 H   0  0  0  0  0  0  0  0  0  0  0  0 
    4.9514    0.5386   -1.2650 H   0  0  0  0  0  0  0  0  0  0  0  0 
    2.9347    1.0709    0.1976 H   0  0  0  0  0  0  0  0  0  0  0  0 
  1 10  1  0  0  0  0 
  2 15  1  0  0  0  0 
  2 14  1  0  0  0  0 
  2 13  1  0  0  0  0 
  3 16  1  0  0  0  0 
  3  9  1  0  0  0  0 
  4  6  1  0  0  0  0 
  5 22  1  0  0  0  0 
  5  4  1  0  0  0  0 
  5 21  1  0  0  0  0 
  6  1  1  0  0  0  0 
  6 23  1  0  0  0  0 
  6  2  1  0  0  0  0 
  7  5  1  0  0  0  0 
  8  7  2  0  0  0  0 
  9  7  1  0  0  0  0 
 11  1  1  0  0  0  0 
 12  1  1  0  0  0  0 
 17  3  1  0  0  0  0 
 18  3  1  0  0  0  0 
 19  4  1  0  0  0  0 
 20  4  1  0  0  0  0 
M  END 
>  <HBA> 
2 
 
>  <HBD> 
0 
 
>  <TPSA> 
26.3 
 
>  <cid> 
17008 
 
>  <dipole> 
1.6 
 
>  <excitation_energy_1> 
5.849 
 
>  <excitation_energy_2> 
6.945 
 
>  <excitation_energy_3> 
7.407 
 
>  <excitation_energy_4> 
7.624 
 
>  <homo_energy> 
-7.304 
 
>  <homo_lumo_gap> 
7.753 
 
>  <logP> 
1.596 
 
>  <lumo_energy> 
0.449 
 
>  <melting_point> 
-14.79 
 
>  <molecular_refractivity> 
37.05 
 
>  <oscillator_strength_1> 
0.0006 
 
>  <oscillator_strength_2> 
0.0171 
 
>  <oscillator_strength_3> 
0.0022 
 
>  <oscillator_strength_4> 
0.0009 
 
>  <open_babel_can_smiles> 
COC(=O)CCC(C)C 
 
>  <mulliken_charges> 
23 
1   -0.442659 
2   -0.447184 
3   -0.216856 
4   -0.24218 
5   -0.368695 
6   -0.070116 
7   0.619632 
8   -0.478076 
9   -0.454695 
10   0.139575 
11   0.141154 
12   0.142527 
13   0.142499 
14   0.142031 
15   0.140467 
16   0.162692 
17   0.168655 
18   0.168959 
19   0.14095 
20   0.14977 
21   0.173074 
22   0.169405 
23   0.119068 
 
>  <lowdin_charges> 
23 
1   -0.444249 
2   -0.444408 
3   -0.276494 
4   -0.271075 
5   -0.304379 
6   -0.119034 
7   0.200203 
8   -0.265154 
9   -0.200307 
10   0.148232 
11   0.146144 
12   0.149725 
13   0.149989 
14   0.144695 
15   0.144888 
16   0.157328 
17   0.159165 
18   0.157123 
19   0.145886 
20   0.153986 
21   0.169254 
22   0.166227 
23   0.132254 
 
$$$$ 
 
