PCCDB-ID:  10772 
public computational chemistry database (PCCDB) project, http://pccdb.org 
 
 19 20  0  0  0  0  0  0  0  0999 V2000 
    2.4607   -1.3791    0.5054 C   0  0  0  0  0  0  0  0  0  0  0  0 
    2.7591    2.2536    0.7143 C   0  0  0  0  0  0  0  0  0  0  0  0 
    3.3889    3.2775    1.4149 C   0  0  0  0  0  0  0  0  0  0  0  0 
    3.8551    0.5188    2.0548 C   0  0  0  0  0  0  0  0  0  0  0  0 
    2.9826    0.8945    1.0223 C   0  0  0  0  0  0  0  0  0  0  0  0 
    4.2612    2.9237    2.4468 C   0  0  0  0  0  0  0  0  0  0  0  0 
    4.4606    1.5694    2.7264 C   0  0  0  0  0  0  0  0  0  0  0  0 
    5.6262    2.7959    4.0494 C   0  0  0  0  0  0  0  0  0  0  0  0 
    5.0373    3.6919    3.3300 N   0  0  0  0  0  0  0  0  0  0  0  0 
    6.4876    2.9749    5.0497 O   0  0  0  0  0  0  0  0  0  0  0  0 
    2.2938    0.0044    0.2466 O   0  0  0  0  0  0  0  0  0  0  0  0 
    5.3577    1.4900    3.7790 O   0  0  0  0  0  0  0  0  0  0  0  0 
    1.8272   -1.8980   -0.2163 H   0  0  0  0  0  0  0  0  0  0  0  0 
    2.1407   -1.6416    1.5229 H   0  0  0  0  0  0  0  0  0  0  0  0 
    3.5035   -1.6941    0.3639 H   0  0  0  0  0  0  0  0  0  0  0  0 
    2.0722    2.4762   -0.0956 H   0  0  0  0  0  0  0  0  0  0  0  0 
    3.2082    4.3186    1.1683 H   0  0  0  0  0  0  0  0  0  0  0  0 
    4.0517   -0.5114    2.3214 H   0  0  0  0  0  0  0  0  0  0  0  0 
    6.5963    3.9365    5.1478 H   0  0  0  0  0  0  0  0  0  0  0  0 
  1 14  1  0  0  0  0 
  2  5  2  0  0  0  0 
  2  3  1  0  0  0  0 
  3  6  2  0  0  0  0 
  4 18  1  0  0  0  0 
  4  7  2  0  0  0  0 
  5  4  1  0  0  0  0 
  6  7  1  0  0  0  0 
  6  9  1  0  0  0  0 
  7 12  1  0  0  0  0 
  8 10  1  0  0  0  0 
  9  8  2  0  0  0  0 
 10 19  1  0  0  0  0 
 11  1  1  0  0  0  0 
 11  5  1  0  0  0  0 
 12  8  1  0  0  0  0 
 13  1  1  0  0  0  0 
 15  1  1  0  0  0  0 
 16  2  1  0  0  0  0 
 17  3  1  0  0  0  0 
M  END 
>  <HBA> 
3 
 
>  <HBD> 
1 
 
>  <TPSA> 
55.23 
 
>  <cid> 
10772 
 
>  <dipole> 
1.05 
 
>  <excitation_energy_1> 
4.735 
 
>  <excitation_energy_2> 
4.894 
 
>  <excitation_energy_3> 
5.313 
 
>  <excitation_energy_4> 
5.345 
 
>  <homo_energy> 
-5.57 
 
>  <homo_lumo_gap> 
5.402 
 
>  <logP> 
1.13 
 
>  <lumo_energy> 
-0.169 
 
>  <melting_point> 
135.71 
 
>  <molecular_refractivity> 
43.33 
 
>  <oscillator_strength_1> 
0.0834 
 
>  <oscillator_strength_2> 
0.0001 
 
>  <oscillator_strength_3> 
0.0075 
 
>  <oscillator_strength_4> 
0.2079 
 
>  <open_babel_can_smiles> 
COc1ccc2c(c1)oc(n2)O 
 
>  <mulliken_charges> 
19 
1   -0.213642 
2   -0.185797 
3   -0.180722 
4   -0.264641 
5   0.367747 
6   0.246113 
7   0.322045 
8   0.695845 
9   -0.540355 
10   -0.593915 
11   -0.508092 
12   -0.493384 
13   0.171968 
14   0.152057 
15   0.151998 
16   0.141345 
17   0.14519 
18   0.15034 
19   0.4359 
 
>  <lowdin_charges> 
19 
1   -0.27593 
2   -0.186191 
3   -0.151341 
4   -0.231525 
5   0.101346 
6   -0.001078 
7   0.077722 
8   0.184901 
9   -0.230213 
10   -0.322306 
11   -0.198772 
12   -0.115348 
13   0.165526 
14   0.144251 
15   0.143832 
16   0.169878 
17   0.16873 
18   0.174838 
19   0.381681 
 
$$$$ 
 
