PCCDB-ID:  55898 
public computational chemistry database (PCCDB) project, http://pccdb.org 
 
 20 21  0  0  1  0  0  0  0  0999 V2000 
    1.3368   -0.5376   -0.4537 C   0  0  0  0  0  0  0  0  0  0  0  0 
    1.6282    2.7626    4.0538 C   0  0  0  0  0  0  0  0  0  0  0  0 
    2.2226    2.1960    2.7459 C   0  0  0  0  0  0  0  0  0  0  0  0 
    0.6534    1.6513    4.5042 C   0  0  0  0  0  0  0  0  0  0  0  0 
    2.1850   -0.2217    1.7205 C   0  0  0  0  0  0  0  0  0  0  0  0 
    2.1201    0.6855    2.9319 C   0  0  1  0  0  0  0  0  0  0  0  0 
    2.5758    0.1058    4.1757 N   0  0  0  0  0  0  0  0  0  0  0  0 
    1.1158    0.3551    3.9444 N   0  0  1  0  0  0  0  0  0  0  0  0 
    2.8320   -1.2359    1.6297 O   0  0  0  0  0  0  0  0  0  0  0  0 
    1.3954    0.2673    0.7358 O   0  0  0  0  0  0  0  0  0  0  0  0 
    0.6686   -0.0080   -1.1334 H   0  0  0  0  0  0  0  0  0  0  0  0 
    0.9433   -1.5308   -0.2226 H   0  0  0  0  0  0  0  0  0  0  0  0 
    2.3315   -0.6436   -0.8948 H   0  0  0  0  0  0  0  0  0  0  0  0 
    1.1167    3.7165    3.8983 H   0  0  0  0  0  0  0  0  0  0  0  0 
    2.4082    2.9471    4.8006 H   0  0  0  0  0  0  0  0  0  0  0  0 
    3.2515    2.5244    2.5601 H   0  0  0  0  0  0  0  0  0  0  0  0 
    1.6209    2.4854    1.8791 H   0  0  0  0  0  0  0  0  0  0  0  0 
   -0.3466    1.8119    4.0860 H   0  0  0  0  0  0  0  0  0  0  0  0 
    0.5499    1.5612    5.5905 H   0  0  0  0  0  0  0  0  0  0  0  0 
    2.9585    0.8580    4.7605 H   0  0  0  0  0  0  0  0  0  0  0  0 
  1 12  1  0  0  0  0 
  1 10  1  0  0  0  0 
  2  4  1  0  0  0  0 
  2 15  1  0  0  0  0 
  3  6  1  0  0  0  0 
  3  2  1  0  0  0  0 
  4 19  1  0  0  0  0 
  6  5  1  6  0  0  0 
  6  8  1  0  0  0  0 
  6  7  1  0  0  0  0 
  7 20  1  0  0  0  0 
  8  7  1  1  0  0  0 
  8  4  1  0  0  0  0 
  9  5  2  0  0  0  0 
 10  5  1  0  0  0  0 
 11  1  1  0  0  0  0 
 13  1  1  0  0  0  0 
 14  2  1  0  0  0  0 
 16  3  1  0  0  0  0 
 17  3  1  0  0  0  0 
 18  4  1  0  0  0  0 
M  END 
>  <HBA> 
4 
 
>  <HBD> 
1 
 
>  <TPSA> 
51.25 
 
>  <cid> 
55898 
 
>  <dipole> 
4.57 
 
>  <excitation_energy_1> 
5.255 
 
>  <excitation_energy_2> 
5.54 
 
>  <excitation_energy_3> 
5.722 
 
>  <excitation_energy_4> 
6.267 
 
>  <homo_energy> 
-6.416 
 
>  <homo_lumo_gap> 
6.452 
 
>  <logP> 
-0.264 
 
>  <lumo_energy> 
0.035 
 
>  <melting_point> 
62.92 
 
>  <molecular_refractivity> 
41.58 
 
>  <oscillator_strength_1> 
0.0053 
 
>  <oscillator_strength_2> 
0.0025 
 
>  <oscillator_strength_3> 
0.0007 
 
>  <oscillator_strength_4> 
0.0062 
 
>  <open_babel_can_smiles> 
COC(=O)[C@]12CCCN2N1 
 
>  <mulliken_charges> 
20 
1   -0.218415 
2   -0.336361 
3   -0.29239 
4   -0.144802 
5   0.633748 
6   0.193741 
7   -0.423921 
8   -0.290715 
9   -0.456742 
10   -0.460193 
11   0.163702 
12   0.177099 
13   0.171528 
14   0.160937 
15   0.151622 
16   0.161478 
17   0.175684 
18   0.165846 
19   0.162285 
20   0.30587 
 
>  <lowdin_charges> 
20 
1   -0.277936 
2   -0.304756 
3   -0.291562 
4   -0.218403 
5   0.190011 
6   0.049611 
7   -0.281278 
8   -0.13012 
9   -0.228884 
10   -0.192157 
11   0.161722 
12   0.162396 
13   0.159758 
14   0.162893 
15   0.147936 
16   0.158796 
17   0.167265 
18   0.158238 
19   0.154108 
20   0.252364 
 
$$$$ 
 
