PCCDB-ID:  7293 
public computational chemistry database (PCCDB) project, http://pccdb.org 
 
 14 13  0  0  0  0  0  0  0  0999 V2000 
    1.1133   -0.3122    0.0443 C   0  0  0  0  0  0  0  0  0  0  0  0 
    2.7799    3.5119    0.9428 C   0  0  0  0  0  0  0  0  0  0  0  0 
    2.9561    1.0946    0.3754 C   0  0  0  0  0  0  0  0  0  0  0  0 
    2.5412   -0.0616    0.0189 N   0  0  0  0  0  0  0  0  0  0  0  0 
    2.2232    2.1724    0.8092 N   0  0  0  0  0  0  0  0  0  0  0  0 
    4.2930    1.3483    0.3853 O   0  0  0  0  0  0  0  0  0  0  0  0 
    0.9243   -1.3459   -0.2607 H   0  0  0  0  0  0  0  0  0  0  0  0 
    0.5482    0.3342   -0.6519 H   0  0  0  0  0  0  0  0  0  0  0  0 
    0.6730   -0.1795    1.0471 H   0  0  0  0  0  0  0  0  0  0  0  0 
    2.0630    4.1336    1.4867 H   0  0  0  0  0  0  0  0  0  0  0  0 
    2.9994    3.9876   -0.0238 H   0  0  0  0  0  0  0  0  0  0  0  0 
    3.7052    3.4667    1.5193 H   0  0  0  0  0  0  0  0  0  0  0  0 
    1.2387    2.1189    0.5913 H   0  0  0  0  0  0  0  0  0  0  0  0 
    4.6940    0.5027    0.1158 H   0  0  0  0  0  0  0  0  0  0  0  0 
  1  9  1  0  0  0  0 
  2 10  1  0  0  0  0 
  2 12  1  0  0  0  0 
  3  6  1  0  0  0  0 
  3  5  1  0  0  0  0 
  4  1  1  0  0  0  0 
  4  3  2  0  0  0  0 
  5  2  1  0  0  0  0 
  7  1  1  0  0  0  0 
  8  1  1  0  0  0  0 
 11  2  1  0  0  0  0 
 13  5  1  0  0  0  0 
 14  6  1  0  0  0  0 
M  END 
>  <HBA> 
3 
 
>  <HBD> 
2 
 
>  <TPSA> 
41.13 
 
>  <cid> 
7293 
 
>  <dipole> 
2.12 
 
>  <excitation_energy_1> 
5.209 
 
>  <excitation_energy_2> 
5.824 
 
>  <excitation_energy_3> 
6.038 
 
>  <excitation_energy_4> 
6.178 
 
>  <homo_energy> 
-5.842 
 
>  <homo_lumo_gap> 
7.5 
 
>  <logP> 
0.327 
 
>  <lumo_energy> 
1.657 
 
>  <melting_point> 
61.51 
 
>  <molecular_refractivity> 
22.73 
 
>  <oscillator_strength_1> 
0.0028 
 
>  <oscillator_strength_2> 
0.0144 
 
>  <oscillator_strength_3> 
0.0029 
 
>  <oscillator_strength_4> 
0.0034 
 
>  <open_babel_can_smiles> 
CN/C(=N\C)/O 
 
>  <mulliken_charges> 
14 
1   -0.333997 
2   -0.295918 
3   0.68659 
4   -0.490391 
5   -0.612505 
6   -0.615428 
7   0.158958 
8   0.123422 
9   0.135655 
10   0.152795 
11   0.155634 
12   0.18845 
13   0.331729 
14   0.415007 
 
>  <lowdin_charges> 
14 
1   -0.360734 
2   -0.349278 
3   0.157645 
4   -0.306151 
5   -0.296546 
6   -0.380298 
7   0.154259 
8   0.128137 
9   0.133131 
10   0.156675 
11   0.14494 
12   0.170795 
13   0.282631 
14   0.364793 
 
$$$$ 
 
