PCCDB-ID:  10994 
public computational chemistry database (PCCDB) project, http://pccdb.org 
 
 13 12  0  0  0  0  0  0  0  0999 V2000 
    1.0780   -0.0780    0.1401 C   0  0  0  0  0  0  0  0  0  0  0  0 
    0.4673   -0.9457    1.2607 C   0  0  0  0  0  0  0  0  0  0  0  0 
    2.6097    0.0773    0.2453 C   0  0  0  0  0  0  0  0  0  0  0  0 
    0.6667   -0.3589    2.5901 C   0  0  0  0  0  0  0  0  0  0  0  0 
    3.3098   -1.2045    0.1095 C   0  0  0  0  0  0  0  0  0  0  0  0 
    0.8475    0.1337    3.6256 N   0  0  0  0  0  0  0  0  0  0  0  0 
    3.8286   -2.2373    0.0017 N   0  0  0  0  0  0  0  0  0  0  0  0 
    0.6301    0.9208    0.1647 H   0  0  0  0  0  0  0  0  0  0  0  0 
    0.8204   -0.5310   -0.8228 H   0  0  0  0  0  0  0  0  0  0  0  0 
    0.9106   -1.9491    1.2487 H   0  0  0  0  0  0  0  0  0  0  0  0 
   -0.6084   -1.0688    1.0902 H   0  0  0  0  0  0  0  0  0  0  0  0 
    2.8806    0.5261    1.2089 H   0  0  0  0  0  0  0  0  0  0  0  0 
    2.9686    0.7565   -0.5366 H   0  0  0  0  0  0  0  0  0  0  0  0 
  1  8  1  0  0  0  0 
  1  3  1  0  0  0  0 
  1  2  1  0  0  0  0 
  2  4  1  0  0  0  0 
  3 12  1  0  0  0  0 
  4  6  3  0  0  0  0 
  5  3  1  0  0  0  0 
  7  5  3  0  0  0  0 
  9  1  1  0  0  0  0 
 10  2  1  0  0  0  0 
 11  2  1  0  0  0  0 
 13  3  1  0  0  0  0 
M  END 
>  <HBA> 
2 
 
>  <HBD> 
0 
 
>  <TPSA> 
47.58 
 
>  <cid> 
10994 
 
>  <dipole> 
4.28 
 
>  <excitation_energy_1> 
7.474 
 
>  <excitation_energy_2> 
7.54 
 
>  <excitation_energy_3> 
7.719 
 
>  <excitation_energy_4> 
7.833 
 
>  <homo_energy> 
-9.032 
 
>  <homo_lumo_gap> 
9.325 
 
>  <logP> 
1.204 
 
>  <lumo_energy> 
0.294 
 
>  <melting_point> 
41.9 
 
>  <molecular_refractivity> 
25.65 
 
>  <oscillator_strength_1> 
0.0007 
 
>  <oscillator_strength_2> 
0.0002 
 
>  <oscillator_strength_3> 
0.0261 
 
>  <oscillator_strength_4> 
0.0066 
 
>  <open_babel_can_smiles> 
N#CCCCC#N 
 
>  <mulliken_charges> 
13 
1   -0.269615 
2   -0.354021 
3   -0.3541 
4   0.352381 
5   0.352339 
6   -0.462481 
7   -0.462435 
8   0.176186 
9   0.17622 
10   0.21936 
11   0.20337 
12   0.21942 
13   0.203377 
 
>  <lowdin_charges> 
13 
1   -0.255645 
2   -0.274615 
3   -0.278575 
4   -0.02108 
5   -0.020944 
6   -0.120417 
7   -0.120356 
8   0.16503 
9   0.16548 
10   0.19208 
11   0.186827 
12   0.192721 
13   0.189496 
 
$$$$ 
 
