PCCDB-ID:  36308 
public computational chemistry database (PCCDB) project, http://pccdb.org 
 
 26 25  0  0  0  0  0  0  0  0999 V2000 
    2.4913    1.5122    0.0837 C   0  0  0  0  0  0  0  0  0  0  0  0 
    0.7743   -0.3394    0.0981 C   0  0  0  0  0  0  0  0  0  0  0  0 
    7.1058   -1.1165   -5.5167 C   0  0  0  0  0  0  0  0  0  0  0  0 
    4.4795   -0.5558   -1.1993 C   0  0  0  0  0  0  0  0  0  0  0  0 
    5.0782   -1.3676   -2.3072 C   0  0  0  0  0  0  0  0  0  0  0  0 
    2.9420   -0.6882   -1.1479 C   0  0  0  0  0  0  0  0  0  0  0  0 
    5.7817   -0.8876   -3.3429 C   0  0  0  0  0  0  0  0  0  0  0  0 
    2.2738   -0.0086    0.0637 C   0  0  0  0  0  0  0  0  0  0  0  0 
    6.3217   -1.7865   -4.4006 C   0  0  0  0  0  0  0  0  0  0  0  0 
    6.1480   -2.9964   -4.3806 O   0  0  0  0  0  0  0  0  0  0  0  0 
    1.9888    1.9664    0.9458 H   0  0  0  0  0  0  0  0  0  0  0  0 
    2.0809    1.9780   -0.8221 H   0  0  0  0  0  0  0  0  0  0  0  0 
    3.5520    1.7791    0.1455 H   0  0  0  0  0  0  0  0  0  0  0  0 
    0.2910    0.1035    0.9769 H   0  0  0  0  0  0  0  0  0  0  0  0 
    0.6031   -1.4219    0.1303 H   0  0  0  0  0  0  0  0  0  0  0  0 
    0.2657    0.0520   -0.7927 H   0  0  0  0  0  0  0  0  0  0  0  0 
    6.4830   -0.3725   -6.0301 H   0  0  0  0  0  0  0  0  0  0  0  0 
    7.4461   -1.8664   -6.2332 H   0  0  0  0  0  0  0  0  0  0  0  0 
    7.9713   -0.5788   -5.1080 H   0  0  0  0  0  0  0  0  0  0  0  0 
    4.7734    0.4947   -1.3054 H   0  0  0  0  0  0  0  0  0  0  0  0 
    4.8901   -0.9082   -0.2399 H   0  0  0  0  0  0  0  0  0  0  0  0 
    4.9159   -2.4460   -2.2779 H   0  0  0  0  0  0  0  0  0  0  0  0 
    2.6834   -1.7563   -1.1379 H   0  0  0  0  0  0  0  0  0  0  0  0 
    2.5157   -0.2800   -2.0755 H   0  0  0  0  0  0  0  0  0  0  0  0 
    5.9800    0.1797   -3.4354 H   0  0  0  0  0  0  0  0  0  0  0  0 
    2.7315   -0.4275    0.9737 H   0  0  0  0  0  0  0  0  0  0  0  0 
  1 13  1  0  0  0  0 
  1 11  1  0  0  0  0 
  2 15  1  0  0  0  0 
  2 14  1  0  0  0  0 
  3 19  1  0  0  0  0 
  3  9  1  0  0  0  0 
  4  6  1  0  0  0  0 
  4 21  1  0  0  0  0 
  5 22  1  0  0  0  0 
  5  4  1  0  0  0  0 
  6 23  1  0  0  0  0 
  6  8  1  0  0  0  0 
  7  5  2  0  0  0  0 
  8  1  1  0  0  0  0 
  8  2  1  0  0  0  0 
  8 26  1  0  0  0  0 
  9 10  2  0  0  0  0 
  9  7  1  0  0  0  0 
 12  1  1  0  0  0  0 
 16  2  1  0  0  0  0 
 17  3  1  0  0  0  0 
 18  3  1  0  0  0  0 
 20  4  1  0  0  0  0 
 24  6  1  0  0  0  0 
 25  7  1  0  0  0  0 
M  END 
>  <HBA> 
1 
 
>  <HBD> 
0 
 
>  <TPSA> 
17.07 
 
>  <cid> 
36308 
 
>  <dipole> 
3.0 
 
>  <excitation_energy_1> 
3.712 
 
>  <excitation_energy_2> 
5.514 
 
>  <excitation_energy_3> 
6.205 
 
>  <excitation_energy_4> 
6.527 
 
>  <homo_energy> 
-6.514 
 
>  <homo_lumo_gap> 
5.287 
 
>  <logP> 
2.568 
 
>  <lumo_energy> 
-1.227 
 
>  <melting_point> 
2.63 
 
>  <molecular_refractivity> 
45.1 
 
>  <oscillator_strength_1> 
0.0002 
 
>  <oscillator_strength_2> 
0.4635 
 
>  <oscillator_strength_3> 
0.0229 
 
>  <oscillator_strength_4> 
0.0011 
 
>  <open_babel_can_smiles> 
CC(CC/C=C/C(=O)C)C 
 
>  <mulliken_charges> 
26 
1   -0.446742 
2   -0.443069 
3   -0.538076 
4   -0.319782 
5   -0.05506 
6   -0.252263 
7   -0.192377 
8   -0.066888 
9   0.435109 
10   -0.461973 
11   0.143354 
12   0.139879 
13   0.144438 
14   0.141887 
15   0.14228 
16   0.140925 
17   0.166577 
18   0.177145 
19   0.167011 
20   0.146635 
21   0.150265 
22   0.163621 
23   0.136504 
24   0.136752 
25   0.12168 
26   0.122167 
 
>  <lowdin_charges> 
26 
1   -0.447402 
2   -0.443441 
3   -0.476956 
4   -0.273762 
5   -0.086144 
6   -0.271055 
7   -0.227266 
8   -0.120205 
9   0.157536 
10   -0.252903 
11   0.151068 
12   0.146614 
13   0.146672 
14   0.149787 
15   0.146885 
16   0.147273 
17   0.169092 
18   0.172527 
19   0.168904 
20   0.147569 
21   0.15488 
22   0.167815 
23   0.142863 
24   0.143408 
25   0.150643 
26   0.135599 
 
$$$$ 
 
