PCCDB-ID:  40628 
public computational chemistry database (PCCDB) project, http://pccdb.org 
 
 20 21  0  0  1  0  0  0  0  0999 V2000 
   -1.5143   -0.0157   -0.0501 C   0  0  0  0  0  0  0  0  0  0  0  0 
   -0.8409    1.1886   -0.2549 C   0  0  0  0  0  0  0  0  0  0  0  0 
   -0.7868   -1.1907    0.1566 C   0  0  0  0  0  0  0  0  0  0  0  0 
    0.5551    1.2162   -0.2529 C   0  0  0  0  0  0  0  0  0  0  0  0 
    0.6066   -1.1612    0.1679 C   0  0  0  0  0  0  0  0  0  0  0  0 
    3.3684    0.0256    1.4172 C   0  0  0  0  0  0  0  0  0  0  0  0 
    4.2042   -1.0100    1.5035 C   0  0  0  0  0  0  0  0  0  0  0  0 
    1.2868    0.0449   -0.0365 C   0  0  0  0  0  0  0  0  0  0  0  0 
    2.8030    0.1026    0.0174 C   0  0  2  0  0  0  0  0  0  0  0  0 
    4.2592   -1.6870    0.1840 C   0  0  0  0  0  0  0  0  0  0  0  0 
    4.8946   -2.6472   -0.1674 O   0  0  0  0  0  0  0  0  0  0  0  0 
    3.4042   -1.0109   -0.6643 O   0  0  0  0  0  0  0  0  0  0  0  0 
   -2.6005   -0.0412   -0.0570 H   0  0  0  0  0  0  0  0  0  0  0  0 
   -1.3988    2.1051   -0.4265 H   0  0  0  0  0  0  0  0  0  0  0  0 
   -1.3063   -2.1329    0.3087 H   0  0  0  0  0  0  0  0  0  0  0  0 
    1.0773    2.1548   -0.4264 H   0  0  0  0  0  0  0  0  0  0  0  0 
    1.1694   -2.0776    0.3183 H   0  0  0  0  0  0  0  0  0  0  0  0 
    3.0910    0.7303    2.1930 H   0  0  0  0  0  0  0  0  0  0  0  0 
    4.7752   -1.3568    2.3546 H   0  0  0  0  0  0  0  0  0  0  0  0 
    3.1449    1.0202   -0.4812 H   0  0  0  0  0  0  0  0  0  0  0  0 
  1  3  2  0  0  0  0 
  2  4  2  0  0  0  0 
  2  1  1  0  0  0  0 
  3  5  1  0  0  0  0 
  3 15  1  0  0  0  0 
  4  8  1  0  0  0  0 
  5 17  1  0  0  0  0 
  6  7  2  0  0  0  0 
  6 18  1  0  0  0  0 
  7 19  1  0  0  0  0 
  8  9  1  0  0  0  0 
  8  5  2  0  0  0  0 
  9 20  1  6  0  0  0 
  9  6  1  0  0  0  0 
 10  7  1  0  0  0  0 
 11 10  2  0  0  0  0 
 12  9  1  0  0  0  0 
 12 10  1  0  0  0  0 
 13  1  1  0  0  0  0 
 14  2  1  0  0  0  0 
 16  4  1  0  0  0  0 
M  END 
>  <HBA> 
2 
 
>  <HBD> 
0 
 
>  <TPSA> 
26.3 
 
>  <cid> 
40628 
 
>  <dipole> 
4.91 
 
>  <excitation_energy_1> 
4.641 
 
>  <excitation_energy_2> 
4.826 
 
>  <excitation_energy_3> 
4.973 
 
>  <excitation_energy_4> 
5.367 
 
>  <homo_energy> 
-6.936 
 
>  <homo_lumo_gap> 
5.611 
 
>  <logP> 
1.841 
 
>  <lumo_energy> 
-1.325 
 
>  <melting_point> 
49.97 
 
>  <molecular_refractivity> 
44.53 
 
>  <oscillator_strength_1> 
0.0055 
 
>  <oscillator_strength_2> 
0.0142 
 
>  <oscillator_strength_3> 
0.0014 
 
>  <oscillator_strength_4> 
0.0011 
 
>  <open_babel_can_smiles> 
O=C1C=C[C@@H](O1)c1ccccc1 
 
>  <mulliken_charges> 
20 
1   -0.125683 
2   -0.128882 
3   -0.130213 
4   -0.188191 
5   -0.171827 
6   -0.108655 
7   -0.176269 
8   0.171024 
9   0.00124 
10   0.596629 
11   -0.46301 
12   -0.470743 
13   0.135966 
14   0.135923 
15   0.138615 
16   0.129128 
17   0.148842 
18   0.169646 
19   0.167009 
20   0.169452 
 
>  <lowdin_charges> 
20 
1   -0.149084 
2   -0.152786 
3   -0.149636 
4   -0.166065 
5   -0.150603 
6   -0.129314 
7   -0.195076 
8   -0.015898 
9   0.00992 
10   0.188447 
11   -0.232489 
12   -0.190391 
13   0.158856 
14   0.161294 
15   0.162195 
16   0.15682 
17   0.167785 
18   0.178119 
19   0.183644 
20   0.164264 
 
$$$$ 
 
