PCCDB-ID:  8369 
public computational chemistry database (PCCDB) project, http://pccdb.org 
 
 15 15  0  0  0  0  0  0  0  0999 V2000 
    1.0303   -0.1880    0.1955 C   0  0  0  0  0  0  0  0  0  0  0  0 
    5.2564   -0.0113   -0.2577 C   0  0  0  0  0  0  0  0  0  0  0  0 
    4.5155   -1.1353   -0.2492 C   0  0  0  0  0  0  0  0  0  0  0  0 
    2.5018    0.0507    0.0488 C   0  0  0  0  0  0  0  0  0  0  0  0 
    4.6374    1.3034   -0.1054 C   0  0  0  0  0  0  0  0  0  0  0  0 
    3.1646    1.2381    0.0537 C   0  0  0  0  0  0  0  0  0  0  0  0 
    5.2556    2.3633   -0.1052 O   0  0  0  0  0  0  0  0  0  0  0  0 
    2.5748    2.4552    0.1990 O   0  0  0  0  0  0  0  0  0  0  0  0 
    3.1735   -1.1405   -0.1024 O   0  0  0  0  0  0  0  0  0  0  0  0 
    0.4622    0.7415    0.2946 H   0  0  0  0  0  0  0  0  0  0  0  0 
    0.8229   -0.8002    1.0812 H   0  0  0  0  0  0  0  0  0  0  0  0 
    0.6382   -0.7236   -0.6771 H   0  0  0  0  0  0  0  0  0  0  0  0 
    6.3323   -0.0622   -0.3795 H   0  0  0  0  0  0  0  0  0  0  0  0 
    4.9002   -2.1429   -0.3576 H   0  0  0  0  0  0  0  0  0  0  0  0 
    1.6167    2.3500    0.2995 H   0  0  0  0  0  0  0  0  0  0  0  0 
  1 10  1  0  0  0  0 
  1 11  1  0  0  0  0 
  2  3  2  0  0  0  0 
  2  5  1  0  0  0  0 
  3  9  1  0  0  0  0 
  4  6  2  0  0  0  0 
  4  1  1  0  0  0  0 
  5  7  2  0  0  0  0 
  5  6  1  0  0  0  0 
  6  8  1  0  0  0  0 
  8 15  1  0  0  0  0 
  9  4  1  0  0  0  0 
 12  1  1  0  0  0  0 
 13  2  1  0  0  0  0 
 14  3  1  0  0  0  0 
M  END 
>  <HBA> 
3 
 
>  <HBD> 
1 
 
>  <TPSA> 
50.44 
 
>  <cid> 
8369 
 
>  <dipole> 
5.29 
 
>  <excitation_energy_1> 
3.955 
 
>  <excitation_energy_2> 
4.868 
 
>  <excitation_energy_3> 
5.109 
 
>  <excitation_energy_4> 
5.272 
 
>  <homo_energy> 
-6.144 
 
>  <homo_lumo_gap> 
5.2 
 
>  <logP> 
0.654 
 
>  <lumo_energy> 
-0.944 
 
>  <melting_point> 
82.8 
 
>  <molecular_refractivity> 
31.97 
 
>  <oscillator_strength_1> 
0.0 
 
>  <oscillator_strength_2> 
0.1529 
 
>  <oscillator_strength_3> 
0.0001 
 
>  <oscillator_strength_4> 
0.0001 
 
>  <open_babel_can_smiles> 
O=c1ccoc(c1O)C 
 
>  <mulliken_charges> 
15 
1   -0.521606 
2   -0.226698 
3   0.112318 
4   0.299198 
5   0.443547 
6   0.206865 
7   -0.504491 
8   -0.614469 
9   -0.458291 
10   0.147962 
11   0.188695 
12   0.188749 
13   0.159797 
14   0.170972 
15   0.407453 
 
>  <lowdin_charges> 
15 
1   -0.442392 
2   -0.223802 
3   -0.024945 
4   0.041925 
5   0.124423 
6   0.032902 
7   -0.271206 
8   -0.348361 
9   -0.105757 
10   0.156649 
11   0.17622 
12   0.176856 
13   0.181615 
14   0.173326 
15   0.352545 
 
$$$$ 
 
