PCCDB-ID:  69420 
public computational chemistry database (PCCDB) project, http://pccdb.org 
 
 28 27  0  0  0  0  0  0  0  0999 V2000 
    1.8984    0.5878   -0.3528 C   0  0  0  0  0  0  0  0  0  0  0  0 
    1.9630   -0.3602    0.8558 C   0  0  0  0  0  0  0  0  0  0  0  0 
    2.8421    0.2091   -1.5079 C   0  0  0  0  0  0  0  0  0  0  0  0 
    1.4149   -1.7707    0.5885 C   0  0  0  0  0  0  0  0  0  0  0  0 
    2.8326    1.1945   -2.6946 C   0  0  0  0  0  0  0  0  0  0  0  0 
    1.3823   -2.6778    1.8290 C   0  0  0  0  0  0  0  0  0  0  0  0 
    1.7370    0.9553   -3.7386 C   0  0  0  0  0  0  0  0  0  0  0  0 
    2.7638   -3.0949    2.3443 C   0  0  0  0  0  0  0  0  0  0  0  0 
    0.4046    1.0987   -3.2493 O   0  0  0  0  0  0  0  0  0  0  0  0 
    3.5463   -3.7701    1.3624 O   0  0  0  0  0  0  0  0  0  0  0  0 
    2.1573    1.6026   -0.0199 H   0  0  0  0  0  0  0  0  0  0  0  0 
    0.8629    0.6567   -0.7112 H   0  0  0  0  0  0  0  0  0  0  0  0 
    1.3941    0.0874    1.6838 H   0  0  0  0  0  0  0  0  0  0  0  0 
    3.0049   -0.4238    1.1996 H   0  0  0  0  0  0  0  0  0  0  0  0 
    2.6129   -0.8023   -1.8755 H   0  0  0  0  0  0  0  0  0  0  0  0 
    3.8614    0.1487   -1.1026 H   0  0  0  0  0  0  0  0  0  0  0  0 
    2.0134   -2.2669   -0.1847 H   0  0  0  0  0  0  0  0  0  0  0  0 
    0.3934   -1.6833    0.1905 H   0  0  0  0  0  0  0  0  0  0  0  0 
    3.7939    1.1306   -3.2243 H   0  0  0  0  0  0  0  0  0  0  0  0 
    2.7498    2.2239   -2.3208 H   0  0  0  0  0  0  0  0  0  0  0  0 
    0.8100   -3.5890    1.5959 H   0  0  0  0  0  0  0  0  0  0  0  0 
    0.8400   -2.1810    2.6470 H   0  0  0  0  0  0  0  0  0  0  0  0 
    1.8763   -0.0378   -4.1976 H   0  0  0  0  0  0  0  0  0  0  0  0 
    1.8313    1.6958   -4.5404 H   0  0  0  0  0  0  0  0  0  0  0  0 
    2.6500   -3.7118    3.2504 H   0  0  0  0  0  0  0  0  0  0  0  0 
    3.3545   -2.2176    2.6264 H   0  0  0  0  0  0  0  0  0  0  0  0 
    0.2069    0.3213   -2.7069 H   0  0  0  0  0  0  0  0  0  0  0  0 
    3.0749   -4.5846    1.1265 H   0  0  0  0  0  0  0  0  0  0  0  0 
  1 11  1  0  0  0  0 
  1  2  1  0  0  0  0 
  2 14  1  0  0  0  0 
  2 13  1  0  0  0  0 
  3 16  1  0  0  0  0 
  3  1  1  0  0  0  0 
  4  2  1  0  0  0  0 
  4  6  1  0  0  0  0 
  5 20  1  0  0  0  0 
  5  3  1  0  0  0  0 
  6  8  1  0  0  0  0 
  6 22  1  0  0  0  0 
  7  9  1  0  0  0  0 
  7  5  1  0  0  0  0 
  8 26  1  0  0  0  0 
  8 25  1  0  0  0  0 
  9 27  1  0  0  0  0 
 10  8  1  0  0  0  0 
 12  1  1  0  0  0  0 
 15  3  1  0  0  0  0 
 17  4  1  0  0  0  0 
 18  4  1  0  0  0  0 
 19  5  1  0  0  0  0 
 21  6  1  0  0  0  0 
 23  7  1  0  0  0  0 
 24  7  1  0  0  0  0 
 28 10  1  0  0  0  0 
M  END 
>  <HBA> 
2 
 
>  <HBD> 
2 
 
>  <TPSA> 
40.46 
 
>  <cid> 
69420 
 
>  <dipole> 
2.06 
 
>  <excitation_energy_1> 
6.315 
 
>  <excitation_energy_2> 
6.43 
 
>  <excitation_energy_3> 
6.952 
 
>  <excitation_energy_4> 
7.027 
 
>  <homo_energy> 
-7.023 
 
>  <homo_lumo_gap> 
8.721 
 
>  <logP> 
1.312 
 
>  <lumo_energy> 
1.698 
 
>  <melting_point> 
9.35 
 
>  <molecular_refractivity> 
42.89 
 
>  <oscillator_strength_1> 
0.0081 
 
>  <oscillator_strength_2> 
0.0048 
 
>  <oscillator_strength_3> 
0.0022 
 
>  <oscillator_strength_4> 
0.0208 
 
>  <open_babel_can_smiles> 
OCCCCCCCCO 
 
>  <mulliken_charges> 
28 
1   -0.256936 
2   -0.25961 
3   -0.270661 
4   -0.249372 
5   -0.263492 
6   -0.283897 
7   -0.042403 
8   -0.034422 
9   -0.611494 
10   -0.610999 
11   0.13342 
12   0.12238 
13   0.125968 
14   0.137302 
15   0.127711 
16   0.138092 
17   0.147219 
18   0.11965 
19   0.127953 
20   0.141413 
21   0.120589 
22   0.131075 
23   0.116998 
24   0.144123 
25   0.120866 
26   0.150453 
27   0.39261 
28   0.385464 
 
>  <lowdin_charges> 
28 
1   -0.27563 
2   -0.278286 
3   -0.281473 
4   -0.28187 
5   -0.292625 
6   -0.296131 
7   -0.135248 
8   -0.138271 
9   -0.472291 
10   -0.46933 
11   0.142859 
12   0.13407 
13   0.140314 
14   0.140539 
15   0.135407 
16   0.144911 
17   0.147936 
18   0.135644 
19   0.146345 
20   0.145542 
21   0.136771 
22   0.145819 
23   0.123023 
24   0.146865 
25   0.127649 
26   0.147238 
27   0.340186 
28   0.340039 
 
$$$$ 
 
