PCCDB-ID:  20567 
public computational chemistry database (PCCDB) project, http://pccdb.org 
 
 17 16  0  0  0  0  0  0  0  0999 V2000 
    3.7246    2.3328   -0.3626 C   0  0  0  0  0  0  0  0  0  0  0  0 
    6.1110    1.5143    3.1963 C   0  0  0  0  0  0  0  0  0  0  0  0 
    4.6055    1.4881    2.9771 C   0  0  0  0  0  0  0  0  0  0  0  0 
    3.1051    0.7433    1.2754 C   0  0  0  0  0  0  0  0  0  0  0  0 
    6.7889    1.9402    2.0246 O   0  0  0  0  0  0  0  0  0  0  0  0 
    2.8544    1.9998    0.7125 O   0  0  0  0  0  0  0  0  0  0  0  0 
    4.3791    0.6168    1.8638 O   0  0  0  0  0  0  0  0  0  0  0  0 
    3.3325    3.2493   -0.8092 H   0  0  0  0  0  0  0  0  0  0  0  0 
    3.7382    1.5377   -1.1238 H   0  0  0  0  0  0  0  0  0  0  0  0 
    4.7487    2.5113   -0.0131 H   0  0  0  0  0  0  0  0  0  0  0  0 
    6.4536    0.5163    3.5135 H   0  0  0  0  0  0  0  0  0  0  0  0 
    6.3609    2.2259    3.9899 H   0  0  0  0  0  0  0  0  0  0  0  0 
    4.2382    2.4941    2.7449 H   0  0  0  0  0  0  0  0  0  0  0  0 
    4.0785    1.1131    3.8688 H   0  0  0  0  0  0  0  0  0  0  0  0 
    3.0694   -0.0496    0.5144 H   0  0  0  0  0  0  0  0  0  0  0  0 
    2.3111    0.5958    2.0192 H   0  0  0  0  0  0  0  0  0  0  0  0 
    6.4723    1.3478    1.3227 H   0  0  0  0  0  0  0  0  0  0  0  0 
  1 10  1  0  0  0  0 
  1  6  1  0  0  0  0 
  2 11  1  0  0  0  0 
  2 12  1  0  0  0  0 
  3  2  1  0  0  0  0 
  3 14  1  0  0  0  0 
  4  7  1  0  0  0  0 
  4 16  1  0  0  0  0 
  5  2  1  0  0  0  0 
  6  4  1  0  0  0  0 
  7  3  1  0  0  0  0 
  8  1  1  0  0  0  0 
  9  1  1  0  0  0  0 
 13  3  1  0  0  0  0 
 15  4  1  0  0  0  0 
 17  5  1  0  0  0  0 
M  END 
>  <HBA> 
3 
 
>  <HBD> 
1 
 
>  <TPSA> 
38.69 
 
>  <cid> 
20567 
 
>  <dipole> 
1.37 
 
>  <excitation_energy_1> 
6.796 
 
>  <excitation_energy_2> 
7.096 
 
>  <excitation_energy_3> 
7.2 
 
>  <excitation_energy_4> 
7.252 
 
>  <homo_energy> 
-7.184 
 
>  <homo_lumo_gap> 
9.323 
 
>  <logP> 
-0.401 
 
>  <lumo_energy> 
2.139 
 
>  <melting_point> 
-24.52 
 
>  <molecular_refractivity> 
24.67 
 
>  <oscillator_strength_1> 
0.0119 
 
>  <oscillator_strength_2> 
0.0152 
 
>  <oscillator_strength_3> 
0.0173 
 
>  <oscillator_strength_4> 
0.0056 
 
>  <open_babel_can_smiles> 
COCOCCO 
 
>  <mulliken_charges> 
17 
1   -0.214526 
2   -0.042781 
3   -0.048996 
4   0.183097 
5   -0.620648 
6   -0.451018 
7   -0.491425 
8   0.163143 
9   0.132291 
10   0.153688 
11   0.131175 
12   0.147892 
13   0.159039 
14   0.126014 
15   0.132753 
16   0.137049 
17   0.403253 
 
>  <lowdin_charges> 
17 
1   -0.28646 
2   -0.138681 
3   -0.154391 
4   -0.026282 
5   -0.469436 
6   -0.263508 
7   -0.282987 
8   0.158896 
9   0.136118 
10   0.142251 
11   0.13159 
12   0.152516 
13   0.147765 
14   0.135898 
15   0.134524 
16   0.138059 
17   0.344126 
 
$$$$ 
 
