PCCDB-ID:  7638 
public computational chemistry database (PCCDB) project, http://pccdb.org 
 
 27 28  0  0  0  0  0  0  0  0999 V2000 
   -1.6919   -0.1028   -0.2791 C   0  0  0  0  0  0  0  0  0  0  0  0 
   -0.9815   -1.2840   -0.0510 C   0  0  0  0  0  0  0  0  0  0  0  0 
   -1.0067    1.1096   -0.3617 C   0  0  0  0  0  0  0  0  0  0  0  0 
    0.4040   -1.2527    0.1016 C   0  0  0  0  0  0  0  0  0  0  0  0 
    0.3818    1.1381   -0.2183 C   0  0  0  0  0  0  0  0  0  0  0  0 
    6.4413   -2.6834   -0.8383 C   0  0  0  0  0  0  0  0  0  0  0  0 
    6.7722   -0.6877    0.4761 C   0  0  0  0  0  0  0  0  0  0  0  0 
    5.0790   -2.4117   -0.9089 C   0  0  0  0  0  0  0  0  0  0  0  0 
    5.4049   -0.4113    0.4059 C   0  0  0  0  0  0  0  0  0  0  0  0 
    2.5923    0.0122    0.2329 C   0  0  0  0  0  0  0  0  0  0  0  0 
    1.0982   -0.0392    0.0192 C   0  0  0  0  0  0  0  0  0  0  0  0 
    7.2977   -1.8214   -0.1425 C   0  0  0  0  0  0  0  0  0  0  0  0 
    4.5484   -1.2748   -0.2873 C   0  0  0  0  0  0  0  0  0  0  0  0 
    8.6491   -2.0386   -0.0381 O   0  0  0  0  0  0  0  0  0  0  0  0 
    3.1945   -1.0990   -0.4222 O   0  0  0  0  0  0  0  0  0  0  0  0 
   -2.7719   -0.1291   -0.3963 H   0  0  0  0  0  0  0  0  0  0  0  0 
   -1.5087   -2.2326    0.0090 H   0  0  0  0  0  0  0  0  0  0  0  0 
   -1.5494    2.0327   -0.5474 H   0  0  0  0  0  0  0  0  0  0  0  0 
    0.9579   -2.1709    0.2704 H   0  0  0  0  0  0  0  0  0  0  0  0 
    0.9130    2.0844   -0.2958 H   0  0  0  0  0  0  0  0  0  0  0  0 
    6.8393   -3.5714   -1.3265 H   0  0  0  0  0  0  0  0  0  0  0  0 
    7.4423   -0.0228    1.0120 H   0  0  0  0  0  0  0  0  0  0  0  0 
    4.4067   -3.0731   -1.4463 H   0  0  0  0  0  0  0  0  0  0  0  0 
    5.0261    0.4801    0.8924 H   0  0  0  0  0  0  0  0  0  0  0  0 
    2.8284   -0.0269    1.3085 H   0  0  0  0  0  0  0  0  0  0  0  0 
    3.0012    0.9551   -0.1582 H   0  0  0  0  0  0  0  0  0  0  0  0 
    8.8714   -2.8545   -0.5120 H   0  0  0  0  0  0  0  0  0  0  0  0 
  1  2  1  0  0  0  0 
  2 17  1  0  0  0  0 
  2  4  2  0  0  0  0 
  3  1  2  0  0  0  0 
  3  5  1  0  0  0  0 
  4 19  1  0  0  0  0 
  5 11  2  0  0  0  0 
  6 12  1  0  0  0  0 
  7 22  1  0  0  0  0 
  8  6  2  0  0  0  0 
  8 13  1  0  0  0  0 
  9  7  1  0  0  0  0 
  9 24  1  0  0  0  0 
 10 25  1  0  0  0  0 
 11  4  1  0  0  0  0 
 11 10  1  0  0  0  0 
 12 14  1  0  0  0  0 
 12  7  2  0  0  0  0 
 13  9  2  0  0  0  0 
 15 13  1  0  0  0  0 
 15 10  1  0  0  0  0 
 16  1  1  0  0  0  0 
 18  3  1  0  0  0  0 
 20  5  1  0  0  0  0 
 21  6  1  0  0  0  0 
 23  8  1  0  0  0  0 
 26 10  1  0  0  0  0 
 27 14  1  0  0  0  0 
M  END 
>  <HBA> 
2 
 
>  <HBD> 
1 
 
>  <TPSA> 
29.46 
 
>  <cid> 
7638 
 
>  <dipole> 
0.57 
 
>  <excitation_energy_1> 
4.55 
 
>  <excitation_energy_2> 
4.687 
 
>  <excitation_energy_3> 
4.771 
 
>  <excitation_energy_4> 
4.81 
 
>  <homo_energy> 
-5.393 
 
>  <homo_lumo_gap> 
5.241 
 
>  <logP> 
2.971 
 
>  <lumo_energy> 
-0.152 
 
>  <melting_point> 
79.79 
 
>  <molecular_refractivity> 
59.44 
 
>  <oscillator_strength_1> 
0.0379 
 
>  <oscillator_strength_2> 
0.0177 
 
>  <oscillator_strength_3> 
0.0029 
 
>  <oscillator_strength_4> 
0.0009 
 
>  <open_babel_can_smiles> 
Oc1ccc(cc1)OCc1ccccc1 
 
>  <mulliken_charges> 
27 
1   -0.126589 
2   -0.132751 
3   -0.129175 
4   -0.158167 
5   -0.180425 
6   -0.195676 
7   -0.170345 
8   -0.183202 
9   -0.196282 
10   -0.106493 
11   0.133551 
12   0.347796 
13   0.378919 
14   -0.6498 
15   -0.527678 
16   0.129805 
17   0.131025 
18   0.130417 
19   0.142556 
20   0.124513 
21   0.119916 
22   0.140047 
23   0.140086 
24   0.136607 
25   0.152291 
26   0.14392 
27   0.405136 
 
>  <lowdin_charges> 
27 
1   -0.154091 
2   -0.153685 
3   -0.155556 
4   -0.154164 
5   -0.16526 
6   -0.202802 
7   -0.17931 
8   -0.172508 
9   -0.200887 
10   -0.121343 
11   -0.013138 
12   0.088148 
13   0.086083 
14   -0.388543 
15   -0.205571 
16   0.155891 
17   0.158254 
18   0.158502 
19   0.165318 
20   0.155128 
21   0.154653 
22   0.168915 
23   0.169017 
24   0.164124 
25   0.143832 
26   0.142677 
27   0.356319 
 
$$$$ 
 
