PCCDB-ID:  11574 
public computational chemistry database (PCCDB) project, http://pccdb.org 
 
 19 19  0  0  0  0  0  0  0  0999 V2000 
    0.9749    0.0392   -0.1449 C   0  0  0  0  0  0  0  0  0  0  0  0 
    5.3455    0.0128   -0.4347 C   0  0  0  0  0  0  0  0  0  0  0  0 
    4.6762    1.3040    0.0595 C   0  0  0  0  0  0  0  0  0  0  0  0 
    4.6617   -1.2166    0.1753 C   0  0  0  0  0  0  0  0  0  0  0  0 
    3.1698    1.2103    0.0381 C   0  0  0  0  0  0  0  0  0  0  0  0 
    3.1797   -1.2712   -0.2247 C   0  0  0  0  0  0  0  0  0  0  0  0 
    2.4811    0.0689   -0.1004 C   0  0  0  0  0  0  0  0  0  0  0  0 
    0.5454    1.0445   -0.0825 H   0  0  0  0  0  0  0  0  0  0  0  0 
    0.5637   -0.5590    0.6805 H   0  0  0  0  0  0  0  0  0  0  0  0 
    0.6145   -0.4259   -1.0738 H   0  0  0  0  0  0  0  0  0  0  0  0 
    6.4157    0.0227   -0.1941 H   0  0  0  0  0  0  0  0  0  0  0  0 
    5.2667   -0.0400   -1.5297 H   0  0  0  0  0  0  0  0  0  0  0  0 
    5.0015    2.1566   -0.5531 H   0  0  0  0  0  0  0  0  0  0  0  0 
    5.0158    1.5343    1.0826 H   0  0  0  0  0  0  0  0  0  0  0  0 
    4.7403   -1.1654    1.2704 H   0  0  0  0  0  0  0  0  0  0  0  0 
    5.1697   -2.1382   -0.1348 H   0  0  0  0  0  0  0  0  0  0  0  0 
    2.6212    2.1472    0.1408 H   0  0  0  0  0  0  0  0  0  0  0  0 
    2.6517   -2.0155    0.3893 H   0  0  0  0  0  0  0  0  0  0  0  0 
    3.0834   -1.6319   -1.2620 H   0  0  0  0  0  0  0  0  0  0  0  0 
  1  7  1  0  0  0  0 
  1  8  1  0  0  0  0 
  1  9  1  0  0  0  0 
  2 11  1  0  0  0  0 
  2  3  1  0  0  0  0 
  2  4  1  0  0  0  0 
  3 14  1  0  0  0  0 
  4 15  1  0  0  0  0 
  5  3  1  0  0  0  0 
  5 17  1  0  0  0  0 
  6  7  1  0  0  0  0 
  6  4  1  0  0  0  0 
  6 18  1  0  0  0  0 
  7  5  2  0  0  0  0 
 10  1  1  0  0  0  0 
 12  2  1  0  0  0  0 
 13  3  1  0  0  0  0 
 16  4  1  0  0  0  0 
 19  6  1  0  0  0  0 
M  END 
>  <HBA> 
0 
 
>  <HBD> 
0 
 
>  <TPSA> 
0.0 
 
>  <cid> 
11574 
 
>  <dipole> 
0.22 
 
>  <excitation_energy_1> 
5.636 
 
>  <excitation_energy_2> 
6.107 
 
>  <excitation_energy_3> 
6.217 
 
>  <excitation_energy_4> 
6.299 
 
>  <homo_energy> 
-6.106 
 
>  <homo_lumo_gap> 
7.1 
 
>  <logP> 
2.507 
 
>  <lumo_energy> 
0.993 
 
>  <melting_point> 
8.56 
 
>  <molecular_refractivity> 
33.17 
 
>  <oscillator_strength_1> 
0.0061 
 
>  <oscillator_strength_2> 
0.0181 
 
>  <oscillator_strength_3> 
0.0325 
 
>  <oscillator_strength_4> 
0.044 
 
>  <open_babel_can_smiles> 
CC1=CCCCC1 
 
>  <mulliken_charges> 
19 
1   -0.512646 
2   -0.262337 
3   -0.29109 
4   -0.262743 
5   -0.170539 
6   -0.320586 
7   0.185633 
8   0.149892 
9   0.148488 
10   0.148593 
11   0.128693 
12   0.13399 
13   0.136987 
14   0.140235 
15   0.134717 
16   0.12864 
17   0.108813 
18   0.13518 
19   0.140079 
 
>  <lowdin_charges> 
19 
1   -0.440133 
2   -0.271021 
3   -0.275444 
4   -0.273111 
5   -0.195998 
6   -0.277699 
7   -0.017838 
8   0.153508 
9   0.15301 
10   0.152664 
11   0.141033 
12   0.138457 
13   0.148194 
14   0.144531 
15   0.138767 
16   0.143114 
17   0.145717 
18   0.147512 
19   0.144738 
 
$$$$ 
 
