PCCDB-ID:  73284 
public computational chemistry database (PCCDB) project, http://pccdb.org 
 
 19 18  0  0  0  0  0  0  0  0999 V2000 
    1.0285   -0.8853   -0.4641 C   0  0  0  0  0  0  0  0  0  0  0  0 
    3.2428   -0.2235   -1.5569 C   0  0  0  0  0  0  0  0  0  0  0  0 
    2.4374   -0.3154   -0.2546 C   0  0  0  0  0  0  0  0  0  0  0  0 
    2.6984    1.4811    1.6001 C   0  0  0  0  0  0  0  0  0  0  0  0 
    3.2598    0.4977    2.6233 C   0  0  0  0  0  0  0  0  0  0  0  0 
    2.3582    1.0046    0.3838 N   0  0  0  0  0  0  0  0  0  0  0  0 
    2.5299    2.6761    1.8772 O   0  0  0  0  0  0  0  0  0  0  0  0 
    3.9866    1.1513    3.5404 O   0  0  0  0  0  0  0  0  0  0  0  0 
    3.0616   -0.6992    2.6480 O   0  0  0  0  0  0  0  0  0  0  0  0 
    1.8038    1.9782   -0.4533 O   0  0  0  0  0  0  0  0  0  0  0  0 
    1.0952   -1.8732   -0.9323 H   0  0  0  0  0  0  0  0  0  0  0  0 
    0.4359   -0.2331   -1.1122 H   0  0  0  0  0  0  0  0  0  0  0  0 
    0.5127   -0.9931    0.4949 H   0  0  0  0  0  0  0  0  0  0  0  0 
    3.3551   -1.2253   -1.9844 H   0  0  0  0  0  0  0  0  0  0  0  0 
    4.2414    0.1853   -1.3714 H   0  0  0  0  0  0  0  0  0  0  0  0 
    2.7398    0.4125   -2.2899 H   0  0  0  0  0  0  0  0  0  0  0  0 
    2.9685   -0.9408    0.4618 H   0  0  0  0  0  0  0  0  0  0  0  0 
    4.2814    0.4778    4.1829 H   0  0  0  0  0  0  0  0  0  0  0  0 
    1.8397    2.7688    0.1413 H   0  0  0  0  0  0  0  0  0  0  0  0 
  1  3  1  0  0  0  0 
  1 13  1  0  0  0  0 
  2 15  1  0  0  0  0 
  2  3  1  0  0  0  0 
  3  6  1  0  0  0  0 
  3 17  1  0  0  0  0 
  4  7  2  0  0  0  0 
  4  5  1  0  0  0  0 
  5  9  2  0  0  0  0 
  5  8  1  0  0  0  0 
  6  4  1  0  0  0  0 
  8 18  1  0  0  0  0 
 10 19  1  0  0  0  0 
 10  6  1  0  0  0  0 
 11  1  1  0  0  0  0 
 12  1  1  0  0  0  0 
 14  2  1  0  0  0  0 
 16  2  1  0  0  0  0 
M  END 
>  <HBA> 
5 
 
>  <HBD> 
2 
 
>  <TPSA> 
77.84 
 
>  <cid> 
73284 
 
>  <dipole> 
2.4 
 
>  <excitation_energy_1> 
4.321 
 
>  <excitation_energy_2> 
4.404 
 
>  <excitation_energy_3> 
5.631 
 
>  <excitation_energy_4> 
5.719 
 
>  <homo_energy> 
-6.392 
 
>  <homo_lumo_gap> 
4.846 
 
>  <logP> 
-0.303 
 
>  <lumo_energy> 
-1.546 
 
>  <melting_point> 
129.19 
 
>  <molecular_refractivity> 
31.75 
 
>  <oscillator_strength_1> 
0.0211 
 
>  <oscillator_strength_2> 
0.0822 
 
>  <oscillator_strength_3> 
0.0009 
 
>  <oscillator_strength_4> 
0.0025 
 
>  <open_babel_can_smiles> 
CC(N(C(=O)C(=O)O)O)C 
 
>  <mulliken_charges> 
19 
1   -0.442799 
2   -0.441609 
3   0.002766 
4   0.561559 
5   0.523941 
6   -0.171906 
7   -0.543613 
8   -0.527274 
9   -0.456767 
10   -0.514894 
11   0.15137 
12   0.17148 
13   0.161802 
14   0.152239 
15   0.153645 
16   0.17583 
17   0.189853 
18   0.419398 
19   0.43498 
 
>  <lowdin_charges> 
19 
1   -0.448407 
2   -0.448103 
3   -0.058693 
4   0.098645 
5   0.176424 
6   0.05773 
7   -0.316238 
8   -0.310044 
9   -0.2531 
10   -0.373169 
11   0.156974 
12   0.16456 
13   0.160622 
14   0.157218 
15   0.156241 
16   0.166441 
17   0.178225 
18   0.369629 
19   0.365045 
 
$$$$ 
 
