PCCDB-ID:  72894 
public computational chemistry database (PCCDB) project, http://pccdb.org 
 
 19 19  0  0  0  0  0  0  0  0999 V2000 
   -1.3951   -0.0756    0.1912 C   0  0  0  0  0  0  0  0  0  0  0  0 
   -0.5605   -1.1622    0.4769 C   0  0  0  0  0  0  0  0  0  0  0  0 
   -0.8709    1.1288   -0.2555 C   0  0  0  0  0  0  0  0  0  0  0  0 
    0.8093   -1.0202    0.2962 C   0  0  0  0  0  0  0  0  0  0  0  0 
    0.5161    1.3023   -0.4494 C   0  0  0  0  0  0  0  0  0  0  0  0 
    1.3471    0.1893   -0.1620 C   0  0  0  0  0  0  0  0  0  0  0  0 
    1.0058    2.4976   -0.9278 N   0  0  0  0  0  0  0  0  0  0  0  0 
    3.5841    1.6399    0.3392 N   0  0  0  0  0  0  0  0  0  0  0  0 
    3.6879   -0.9712    0.1744 O   0  0  0  0  0  0  0  0  0  0  0  0 
    3.3945    0.4922   -1.8844 O   0  0  0  0  0  0  0  0  0  0  0  0 
    3.1026    0.2057   -0.4780 S   0  0  0  0  0  0  0  0  0  0  0  0 
   -2.4698   -0.1656    0.3267 H   0  0  0  0  0  0  0  0  0  0  0  0 
   -0.9718   -2.1006    0.8339 H   0  0  0  0  0  0  0  0  0  0  0  0 
   -1.5320    1.9661   -0.4672 H   0  0  0  0  0  0  0  0  0  0  0  0 
    1.4890   -1.8383    0.5075 H   0  0  0  0  0  0  0  0  0  0  0  0 
    0.3708    3.2824   -0.8744 H   0  0  0  0  0  0  0  0  0  0  0  0 
    1.9626    2.7203   -0.6746 H   0  0  0  0  0  0  0  0  0  0  0  0 
    3.7183    1.4438    1.3320 H   0  0  0  0  0  0  0  0  0  0  0  0 
    4.4735    1.9280   -0.0718 H   0  0  0  0  0  0  0  0  0  0  0  0 
  1 12  1  0  0  0  0 
  1  2  2  0  0  0  0 
  2 13  1  0  0  0  0 
  3  1  1  0  0  0  0 
  4  2  1  0  0  0  0 
  4 15  1  0  0  0  0 
  5  3  2  0  0  0  0 
  5  6  1  0  0  0  0 
  6  4  2  0  0  0  0 
  7 16  1  0  0  0  0 
  7 17  1  0  0  0  0 
  7  5  1  0  0  0  0 
  8 18  1  0  0  0  0 
 10 11  2  0  0  0  0 
 11  6  1  0  0  0  0 
 11  9  2  0  0  0  0 
 11  8  1  0  0  0  0 
 14  3  1  0  0  0  0 
 19  8  1  0  0  0  0 
M  END 
>  <HBA> 
4 
 
>  <HBD> 
2 
 
>  <TPSA> 
94.56 
 
>  <cid> 
72894 
 
>  <dipole> 
5.02 
 
>  <excitation_energy_1> 
4.384 
 
>  <excitation_energy_2> 
5.046 
 
>  <excitation_energy_3> 
5.346 
 
>  <excitation_energy_4> 
5.551 
 
>  <homo_energy> 
-5.897 
 
>  <homo_lumo_gap> 
5.094 
 
>  <logP> 
2.279 
 
>  <lumo_energy> 
-0.803 
 
>  <melting_point> 
141.87 
 
>  <molecular_refractivity> 
41.84 
 
>  <oscillator_strength_1> 
0.0713 
 
>  <oscillator_strength_2> 
0.0079 
 
>  <oscillator_strength_3> 
0.0678 
 
>  <oscillator_strength_4> 
0.0036 
 
>  <open_babel_can_smiles> 
Nc1ccccc1S(=O)(=O)N 
 
>  <mulliken_charges> 
19 
1   -0.127087 
2   -0.133183 
3   -0.165723 
4   -0.155116 
5   0.341493 
6   -0.230457 
7   -0.798648 
8   -0.849424 
9   -0.516575 
10   -0.522035 
11   1.170171 
12   0.138737 
13   0.135811 
14   0.127047 
15   0.182895 
16   0.325298 
17   0.367658 
18   0.3514 
19   0.357738 
 
>  <lowdin_charges> 
19 
1   -0.124341 
2   -0.187318 
3   -0.199472 
4   -0.128468 
5   0.085881 
6   -0.241424 
7   -0.468151 
8   -0.70064 
9   -0.591653 
10   -0.582639 
11   1.30566 
12   0.160849 
13   0.163269 
14   0.158811 
15   0.18672 
16   0.281029 
17   0.291668 
18   0.292802 
19   0.297417 
 
$$$$ 
 
