PCCDB-ID:  39432 
public computational chemistry database (PCCDB) project, http://pccdb.org 
 
 25 25  0  0  0  0  0  0  0  0999 V2000 
    1.8824    0.5452    1.5462 C   0  0  0  0  0  0  0  0  0  0  0  0 
    3.1410    0.3907    0.6865 C   0  0  0  0  0  0  0  0  0  0  0  0 
    3.0051   -0.6863   -0.3975 C   0  0  0  0  0  0  0  0  0  0  0  0 
    4.2675   -0.8461   -1.2530 C   0  0  0  0  0  0  0  0  0  0  0  0 
    4.1259   -1.9245   -2.3296 C   0  0  0  0  0  0  0  0  0  0  0  0 
    6.5450   -3.7914   -4.5195 C   0  0  0  0  0  0  0  0  0  0  0  0 
    5.5553   -4.5147   -3.6547 C   0  0  0  0  0  0  0  0  0  0  0  0 
    5.3433   -2.0313   -3.2376 C   0  0  0  0  0  0  0  0  0  0  0  0 
    5.3236   -3.1437   -4.0938 N   0  0  0  0  0  0  0  0  0  0  0  0 
    6.2181   -1.1863   -3.2988 O   0  0  0  0  0  0  0  0  0  0  0  0 
    2.0112    1.3217    2.3088 H   0  0  0  0  0  0  0  0  0  0  0  0 
    1.6370   -0.3911    2.0627 H   0  0  0  0  0  0  0  0  0  0  0  0 
    1.0151    0.8211    0.9337 H   0  0  0  0  0  0  0  0  0  0  0  0 
    3.9981    0.1486    1.3308 H   0  0  0  0  0  0  0  0  0  0  0  0 
    3.3818    1.3520    0.2112 H   0  0  0  0  0  0  0  0  0  0  0  0 
    2.1511   -0.4404   -1.0466 H   0  0  0  0  0  0  0  0  0  0  0  0 
    2.7557   -1.6474    0.0777 H   0  0  0  0  0  0  0  0  0  0  0  0 
    5.1235   -1.0884   -0.6090 H   0  0  0  0  0  0  0  0  0  0  0  0 
    4.5197    0.1051   -1.7362 H   0  0  0  0  0  0  0  0  0  0  0  0 
    3.2599   -1.7138   -2.9740 H   0  0  0  0  0  0  0  0  0  0  0  0 
    3.9211   -2.9069   -1.8825 H   0  0  0  0  0  0  0  0  0  0  0  0 
    6.6116   -4.0280   -5.5789 H   0  0  0  0  0  0  0  0  0  0  0  0 
    7.4690   -3.4441   -4.0615 H   0  0  0  0  0  0  0  0  0  0  0  0 
    5.8266   -4.6779   -2.6121 H   0  0  0  0  0  0  0  0  0  0  0  0 
    4.8977   -5.2700   -4.0802 H   0  0  0  0  0  0  0  0  0  0  0  0 
  1 12  1  0  0  0  0 
  1 11  1  0  0  0  0 
  2 14  1  0  0  0  0 
  2  1  1  0  0  0  0 
  3 17  1  0  0  0  0 
  3  2  1  0  0  0  0 
  4 18  1  0  0  0  0 
  4  3  1  0  0  0  0 
  5 21  1  0  0  0  0 
  5  4  1  0  0  0  0 
  6  9  1  0  0  0  0 
  6 23  1  0  0  0  0 
  6  7  1  0  0  0  0 
  7 24  1  0  0  0  0 
  8  5  1  0  0  0  0 
  9  7  1  0  0  0  0 
  9  8  1  0  0  0  0 
 10  8  2  0  0  0  0 
 13  1  1  0  0  0  0 
 15  2  1  0  0  0  0 
 16  3  1  0  0  0  0 
 19  4  1  0  0  0  0 
 20  5  1  0  0  0  0 
 22  6  1  0  0  0  0 
 25  7  1  0  0  0  0 
M  END 
>  <HBA> 
2 
 
>  <HBD> 
0 
 
>  <TPSA> 
20.08 
 
>  <cid> 
39432 
 
>  <dipole> 
2.85 
 
>  <excitation_energy_1> 
5.042 
 
>  <excitation_energy_2> 
6.26 
 
>  <excitation_energy_3> 
6.486 
 
>  <excitation_energy_4> 
6.756 
 
>  <homo_energy> 
-6.664 
 
>  <homo_lumo_gap> 
6.792 
 
>  <logP> 
1.347 
 
>  <lumo_energy> 
0.128 
 
>  <melting_point> 
4.79 
 
>  <molecular_refractivity> 
45.47 
 
>  <oscillator_strength_1> 
0.0066 
 
>  <oscillator_strength_2> 
0.0418 
 
>  <oscillator_strength_3> 
0.0729 
 
>  <oscillator_strength_4> 
0.0124 
 
>  <open_babel_can_smiles> 
CCCCCC(=O)N1CC1 
 
>  <mulliken_charges> 
25 
1   -0.44164 
2   -0.247213 
3   -0.24983 
4   -0.24757 
5   -0.351375 
6   -0.187145 
7   -0.201089 
8   0.54387 
9   -0.376886 
10   -0.471659 
11   0.142681 
12   0.14005 
13   0.141328 
14   0.131438 
15   0.134283 
16   0.126762 
17   0.12323 
18   0.137532 
19   0.15683 
20   0.172976 
21   0.148235 
22   0.166565 
23   0.177772 
24   0.164186 
25   0.166668 
 
>  <lowdin_charges> 
25 
1   -0.445642 
2   -0.272272 
3   -0.275704 
4   -0.271685 
5   -0.304191 
6   -0.221004 
7   -0.223306 
8   0.166886 
9   -0.159377 
10   -0.262811 
11   0.150343 
12   0.145716 
13   0.14677 
14   0.140177 
15   0.140967 
16   0.13782 
17   0.135071 
18   0.145388 
19   0.154643 
20   0.169518 
21   0.154279 
22   0.162838 
23   0.166325 
24   0.155742 
25   0.163506 
 
$$$$ 
 
