PCCDB-ID:  34717 
public computational chemistry database (PCCDB) project, http://pccdb.org 
 
 26 26  0  0  1  0  0  0  0  0999 V2000 
    1.8263   -0.2981   -1.4954 C   0  0  0  0  0  0  0  0  0  0  0  0 
    1.8010   -3.8322    2.2666 C   0  0  0  0  0  0  0  0  0  0  0  0 
    3.2809   -0.4200    2.1429 C   0  0  0  0  0  0  0  0  0  0  0  0 
    2.4327    0.1279   -0.1562 C   0  0  0  0  0  0  0  0  0  0  0  0 
    3.6613   -2.1139    0.2620 C   0  0  0  0  0  0  0  0  0  0  0  0 
    1.5714   -3.0953    0.9445 C   0  0  2  0  0  0  0  0  0  0  0  0 
    2.7148   -3.2775   -0.0841 C   0  0  2  0  0  0  0  0  0  0  0  0 
    2.7371   -1.0133    0.8365 C   0  0  1  0  0  0  0  0  0  0  0  0 
    3.3133   -4.5619   -0.1120 O   0  0  0  0  0  0  0  0  0  0  0  0 
    1.4771   -1.6821    1.1270 O   0  0  0  0  0  0  0  0  0  0  0  0 
    1.5874    0.5803   -2.1053 H   0  0  0  0  0  0  0  0  0  0  0  0 
    0.9000   -0.8595   -1.3382 H   0  0  0  0  0  0  0  0  0  0  0  0 
    2.5119   -0.9222   -2.0810 H   0  0  0  0  0  0  0  0  0  0  0  0 
    1.7618   -4.9168    2.1152 H   0  0  0  0  0  0  0  0  0  0  0  0 
    1.0197   -3.5560    2.9810 H   0  0  0  0  0  0  0  0  0  0  0  0 
    2.7670   -3.5780    2.7214 H   0  0  0  0  0  0  0  0  0  0  0  0 
    4.2131    0.1301    1.9655 H   0  0  0  0  0  0  0  0  0  0  0  0 
    3.4824   -1.2075    2.8764 H   0  0  0  0  0  0  0  0  0  0  0  0 
    2.5513    0.2701    2.5791 H   0  0  0  0  0  0  0  0  0  0  0  0 
    1.7395    0.8167    0.3439 H   0  0  0  0  0  0  0  0  0  0  0  0 
    3.3611    0.6900   -0.3276 H   0  0  0  0  0  0  0  0  0  0  0  0 
    4.2403   -1.7775   -0.6029 H   0  0  0  0  0  0  0  0  0  0  0  0 
    4.3819   -2.4471    1.0213 H   0  0  0  0  0  0  0  0  0  0  0  0 
    0.6130   -3.4241    0.5249 H   0  0  0  0  0  0  0  0  0  0  0  0 
    2.3081   -3.1415   -1.0898 H   0  0  0  0  0  0  0  0  0  0  0  0 
    3.7621   -4.6966    0.7376 H   0  0  0  0  0  0  0  0  0  0  0  0 
  1 12  1  0  0  0  0 
  1  4  1  0  0  0  0 
  2 16  1  0  0  0  0 
  2 15  1  0  0  0  0 
  3 19  1  0  0  0  0 
  3 18  1  0  0  0  0 
  4 20  1  0  0  0  0 
  5  8  1  0  0  0  0 
  5 23  1  0  0  0  0 
  6 24  1  6  0  0  0 
  6 10  1  0  0  0  0 
  6  2  1  0  0  0  0 
  7 25  1  6  0  0  0 
  7  5  1  0  0  0  0 
  7  6  1  0  0  0  0 
  8  4  1  6  0  0  0 
  8 10  1  0  0  0  0 
  8  3  1  0  0  0  0 
  9  7  1  0  0  0  0 
  9 26  1  0  0  0  0 
 11  1  1  0  0  0  0 
 13  1  1  0  0  0  0 
 14  2  1  0  0  0  0 
 17  3  1  0  0  0  0 
 21  4  1  0  0  0  0 
 22  5  1  0  0  0  0 
M  END 
>  <HBA> 
2 
 
>  <HBD> 
1 
 
>  <TPSA> 
29.46 
 
>  <cid> 
34717 
 
>  <dipole> 
1.46 
 
>  <excitation_energy_1> 
6.051 
 
>  <excitation_energy_2> 
6.388 
 
>  <excitation_energy_3> 
6.436 
 
>  <excitation_energy_4> 
6.526 
 
>  <homo_energy> 
-6.585 
 
>  <homo_lumo_gap> 
8.332 
 
>  <logP> 
1.325 
 
>  <lumo_energy> 
1.747 
 
>  <melting_point> 
15.38 
 
>  <molecular_refractivity> 
40.74 
 
>  <oscillator_strength_1> 
0.0167 
 
>  <oscillator_strength_2> 
0.0058 
 
>  <oscillator_strength_3> 
0.0091 
 
>  <oscillator_strength_4> 
0.0221 
 
>  <open_babel_can_smiles> 
CC[C@]1(C)C[C@H]([C@H](O1)C)O 
 
>  <mulliken_charges> 
26 
1   -0.460618 
2   -0.482498 
3   -0.457937 
4   -0.256815 
5   -0.354672 
6   0.147253 
7   0.113434 
8   0.349702 
9   -0.625017 
10   -0.526919 
11   0.144184 
12   0.161091 
13   0.141922 
14   0.150702 
15   0.16444 
16   0.133815 
17   0.138169 
18   0.141305 
19   0.153504 
20   0.140964 
21   0.126982 
22   0.156137 
23   0.128434 
24   0.133399 
25   0.14966 
26   0.389378 
 
>  <lowdin_charges> 
26 
1   -0.45284 
2   -0.467389 
3   -0.451921 
4   -0.280754 
5   -0.310441 
6   -0.013414 
7   -0.018955 
8   0.127253 
9   -0.449506 
10   -0.282896 
11   0.152842 
12   0.155934 
13   0.145953 
14   0.15367 
15   0.164938 
16   0.141714 
17   0.14934 
18   0.149413 
19   0.157505 
20   0.150592 
21   0.142045 
22   0.159152 
23   0.144401 
24   0.143093 
25   0.150791 
26   0.33948 
 
$$$$ 
 
