PCCDB-ID:  8705 
public computational chemistry database (PCCDB) project, http://pccdb.org 
 
 17 18  0  0  0  0  0  0  0  0999 V2000 
    0.9616   -0.0655    0.0247 C   0  0  0  0  0  0  0  0  0  0  0  0 
    3.2124    1.0942    0.0614 C   0  0  0  0  0  0  0  0  0  0  0  0 
    4.5949    1.1204    0.0803 C   0  0  0  0  0  0  0  0  0  0  0  0 
    3.1340   -1.3442    0.0438 C   0  0  0  0  0  0  0  0  0  0  0  0 
    2.4715   -0.1221    0.0430 C   0  0  0  0  0  0  0  0  0  0  0  0 
    5.2679   -0.1128    0.0811 C   0  0  0  0  0  0  0  0  0  0  0  0 
    4.5365   -1.3164    0.0630 C   0  0  0  0  0  0  0  0  0  0  0  0 
    6.6163   -0.4096    0.0968 N   0  0  0  0  0  0  0  0  0  0  0  0 
    5.5156   -2.2667    0.0695 N   0  0  0  0  0  0  0  0  0  0  0  0 
    6.7564   -1.6939    0.0899 N   0  0  0  0  0  0  0  0  0  0  0  0 
    0.5949    0.4770   -0.8555 H   0  0  0  0  0  0  0  0  0  0  0  0 
    0.5730    0.4572    0.9076 H   0  0  0  0  0  0  0  0  0  0  0  0 
    0.5214   -1.0672    0.0079 H   0  0  0  0  0  0  0  0  0  0  0  0 
    2.6614    2.0314    0.0618 H   0  0  0  0  0  0  0  0  0  0  0  0 
    5.1504    2.0527    0.0945 H   0  0  0  0  0  0  0  0  0  0  0  0 
    2.5801   -2.2786    0.0291 H   0  0  0  0  0  0  0  0  0  0  0  0 
    5.4455   -3.2737    0.0614 H   0  0  0  0  0  0  0  0  0  0  0  0 
  1  5  1  0  0  0  0 
  1 12  1  0  0  0  0 
  2 14  1  0  0  0  0 
  2  3  2  0  0  0  0 
  3  6  1  0  0  0  0 
  3 15  1  0  0  0  0 
  4  7  1  0  0  0  0 
  5  4  2  0  0  0  0 
  5  2  1  0  0  0  0 
  6  8  1  0  0  0  0 
  7  9  1  0  0  0  0 
  7  6  2  0  0  0  0 
  9 10  1  0  0  0  0 
 10  8  2  0  0  0  0 
 11  1  1  0  0  0  0 
 13  1  1  0  0  0  0 
 16  4  1  0  0  0  0 
 17  9  1  0  0  0  0 
M  END 
>  <HBA> 
2 
 
>  <HBD> 
1 
 
>  <TPSA> 
41.57 
 
>  <cid> 
8705 
 
>  <dipole> 
4.37 
 
>  <excitation_energy_1> 
4.834 
 
>  <excitation_energy_2> 
5.023 
 
>  <excitation_energy_3> 
5.06 
 
>  <excitation_energy_4> 
5.817 
 
>  <homo_energy> 
-6.506 
 
>  <homo_lumo_gap> 
5.437 
 
>  <logP> 
1.266 
 
>  <lumo_energy> 
-1.069 
 
>  <melting_point> 
130.77 
 
>  <molecular_refractivity> 
38.85 
 
>  <oscillator_strength_1> 
0.0578 
 
>  <oscillator_strength_2> 
0.0043 
 
>  <oscillator_strength_3> 
0.1103 
 
>  <oscillator_strength_4> 
0.0 
 
>  <open_babel_can_smiles> 
Cc1ccc2c(c1)[nH]nn2 
 
>  <mulliken_charges> 
17 
1   -0.532463 
2   -0.192359 
3   -0.14638 
4   -0.219025 
5   0.165464 
6   0.239596 
7   0.391273 
8   -0.361307 
9   -0.563826 
10   -0.031768 
11   0.167594 
12   0.167752 
13   0.156694 
14   0.12905 
15   0.151857 
16   0.131714 
17   0.346133 
 
>  <lowdin_charges> 
17 
1   -0.441814 
2   -0.174375 
3   -0.140589 
4   -0.194148 
5   0.014045 
6   -0.018861 
7   0.016337 
8   -0.12506 
9   -0.148128 
10   -0.064895 
11   0.164236 
12   0.164323 
13   0.156943 
14   0.159564 
15   0.172943 
16   0.160617 
17   0.298863 
 
$$$$ 
 
