PCCDB-ID:  23671 
public computational chemistry database (PCCDB) project, http://pccdb.org 
 
 28 28  0  0  1  0  0  0  0  0999 V2000 
    2.5555   -1.3984    1.1128 C   0  0  0  0  0  0  0  0  0  0  0  0 
    5.2665   -2.5523   -2.7689 C   0  0  0  0  0  0  0  0  0  0  0  0 
    8.2316    0.5655    2.6810 C   0  0  0  0  0  0  0  0  0  0  0  0 
    6.9503    0.3987    3.2102 C   0  0  0  0  0  0  0  0  0  0  0  0 
    8.3904    0.8866    1.3312 C   0  0  0  0  0  0  0  0  0  0  0  0 
    5.8291    0.5467    2.3933 C   0  0  0  0  0  0  0  0  0  0  0  0 
    7.2713    1.0447    0.5145 C   0  0  0  0  0  0  0  0  0  0  0  0 
    3.8438   -1.1117    0.3399 C   0  0  1  0  0  0  0  0  0  0  0  0 
    5.9800    0.8682    1.0366 C   0  0  0  0  0  0  0  0  0  0  0  0 
    4.7907    1.0631    0.1443 C   0  0  0  0  0  0  0  0  0  0  0  0 
    3.9613   -2.0440   -0.8759 C   0  0  0  0  0  0  0  0  0  0  0  0 
    3.8496    0.2620   -0.1370 N   0  0  0  0  0  0  0  0  0  0  0  0 
    4.7502    2.2878   -0.4677 O   0  0  0  0  0  0  0  0  0  0  0  0 
    3.2084   -2.9538   -1.1432 O   0  0  0  0  0  0  0  0  0  0  0  0 
    5.0558   -1.7397   -1.6039 O   0  0  0  0  0  0  0  0  0  0  0  0 
    2.5053   -2.4513    1.4030 H   0  0  0  0  0  0  0  0  0  0  0  0 
    1.6849   -1.1679    0.4930 H   0  0  0  0  0  0  0  0  0  0  0  0 
    2.5137   -0.7772    2.0136 H   0  0  0  0  0  0  0  0  0  0  0  0 
    6.1741   -2.1665   -3.2344 H   0  0  0  0  0  0  0  0  0  0  0  0 
    4.4184   -2.4684   -3.4536 H   0  0  0  0  0  0  0  0  0  0  0  0 
    5.3938   -3.6020   -2.4896 H   0  0  0  0  0  0  0  0  0  0  0  0 
    9.1034    0.4474    3.3186 H   0  0  0  0  0  0  0  0  0  0  0  0 
    6.8223    0.1571    4.2617 H   0  0  0  0  0  0  0  0  0  0  0  0 
    9.3855    1.0135    0.9139 H   0  0  0  0  0  0  0  0  0  0  0  0 
    4.8324    0.4290    2.8092 H   0  0  0  0  0  0  0  0  0  0  0  0 
    7.3933    1.2858   -0.5382 H   0  0  0  0  0  0  0  0  0  0  0  0 
    4.7139   -1.3475    0.9746 H   0  0  0  0  0  0  0  0  0  0  0  0 
    5.4141    2.8596   -0.0507 H   0  0  0  0  0  0  0  0  0  0  0  0 
  1 16  1  0  0  0  0 
  1 18  1  0  0  0  0 
  2 21  1  0  0  0  0 
  2 15  1  0  0  0  0 
  3  4  1  0  0  0  0 
  3 22  1  0  0  0  0 
  4 23  1  0  0  0  0 
  5  3  2  0  0  0  0 
  6 25  1  0  0  0  0 
  6  4  2  0  0  0  0 
  7  9  2  0  0  0  0 
  7  5  1  0  0  0  0 
  8 27  1  1  0  0  0 
  8  1  1  0  0  0  0 
  9  6  1  0  0  0  0 
 10  9  1  0  0  0  0 
 11  8  1  0  0  0  0 
 12 10  2  0  0  0  0 
 12  8  1  0  0  0  0 
 13 28  1  0  0  0  0 
 13 10  1  0  0  0  0 
 14 11  2  0  0  0  0 
 15 11  1  0  0  0  0 
 17  1  1  0  0  0  0 
 19  2  1  0  0  0  0 
 20  2  1  0  0  0  0 
 24  5  1  0  0  0  0 
 26  7  1  0  0  0  0 
M  END 
>  <HBA> 
4 
 
>  <HBD> 
1 
 
>  <TPSA> 
55.4 
 
>  <cid> 
23671 
 
>  <dipole> 
5.31 
 
>  <excitation_energy_1> 
4.755 
 
>  <excitation_energy_2> 
5.099 
 
>  <excitation_energy_3> 
5.162 
 
>  <excitation_energy_4> 
5.279 
 
>  <homo_energy> 
-6.572 
 
>  <homo_lumo_gap> 
5.652 
 
>  <logP> 
1.369 
 
>  <lumo_energy> 
-0.92 
 
>  <melting_point> 
75.84 
 
>  <molecular_refractivity> 
55.14 
 
>  <oscillator_strength_1> 
0.0052 
 
>  <oscillator_strength_2> 
0.0407 
 
>  <oscillator_strength_3> 
0.0702 
 
>  <oscillator_strength_4> 
0.007 
 
>  <open_babel_can_smiles> 
COC(=O)[C@@H](/N=C(\c1ccccc1)/O)C 
 
>  <mulliken_charges> 
28 
1   -0.431877 
2   -0.216005 
3   -0.122072 
4   -0.132939 
5   -0.129607 
6   -0.157832 
7   -0.168663 
8   -0.083347 
9   0.030733 
10   0.426117 
11   0.647361 
12   -0.400265 
13   -0.578263 
14   -0.481144 
15   -0.448223 
16   0.156698 
17   0.171641 
18   0.136267 
19   0.160548 
20   0.17333 
21   0.166903 
22   0.140756 
23   0.142365 
24   0.141376 
25   0.153286 
26   0.152081 
27   0.146174 
28   0.404602 
 
>  <lowdin_charges> 
28 
1   -0.43905 
2   -0.276696 
3   -0.148182 
4   -0.148507 
5   -0.150503 
6   -0.153435 
7   -0.156599 
8   -0.082949 
9   -0.047307 
10   0.133102 
11   0.194377 
12   -0.190504 
13   -0.364854 
14   -0.257645 
15   -0.186184 
16   0.159141 
17   0.166524 
18   0.147496 
19   0.159017 
20   0.161626 
21   0.155763 
22   0.163956 
23   0.162449 
24   0.162963 
25   0.167047 
26   0.165954 
27   0.146724 
28   0.356276 
 
$$$$ 
 
