PCCDB-ID:  20120 
public computational chemistry database (PCCDB) project, http://pccdb.org 
 
 12 11  0  0  0  0  0  0  0  0999 V2000 
    1.0811    0.1346    0.1421 C   0  0  0  0  0  0  0  0  0  0  0  0 
    3.2696   -1.1341    0.1878 C   0  0  0  0  0  0  0  0  0  0  0  0 
    2.4838    0.0179   -0.2397 N   0  0  0  0  0  0  0  0  0  0  0  0 
    3.1784    1.2118   -0.3283 N   0  0  0  0  0  0  0  0  0  0  0  0 
    4.4079    1.1425   -0.3592 O   0  0  0  0  0  0  0  0  0  0  0  0 
    2.5101    2.2438   -0.4028 O   0  0  0  0  0  0  0  0  0  0  0  0 
    0.6320   -0.8550    0.0374 H   0  0  0  0  0  0  0  0  0  0  0  0 
    0.5779    0.8319   -0.5262 H   0  0  0  0  0  0  0  0  0  0  0  0 
    0.9588    0.4833    1.1767 H   0  0  0  0  0  0  0  0  0  0  0  0 
    2.6348   -2.0165    0.0856 H   0  0  0  0  0  0  0  0  0  0  0  0 
    3.6060   -1.0449    1.2298 H   0  0  0  0  0  0  0  0  0  0  0  0 
    4.1418   -1.2401   -0.4558 H   0  0  0  0  0  0  0  0  0  0  0  0 
  1  9  1  0  0  0  0 
  2 11  1  0  0  0  0 
  3  1  1  0  0  0  0 
  3  2  1  0  0  0  0 
  4  3  1  0  0  0  0 
  5  4  2  0  0  0  0 
  6  4  2  0  0  0  0 
  7  1  1  0  0  0  0 
  8  1  1  0  0  0  0 
 10  2  1  0  0  0  0 
 12  2  1  0  0  0  0 
M  END 
>  <HBA> 
1 
 
>  <HBD> 
0 
 
>  <TPSA> 
49.06 
 
>  <cid> 
20120 
 
>  <dipole> 
4.46 
 
>  <excitation_energy_1> 
4.552 
 
>  <excitation_energy_2> 
5.322 
 
>  <excitation_energy_3> 
5.851 
 
>  <excitation_energy_4> 
6.684 
 
>  <homo_energy> 
-7.404 
 
>  <homo_lumo_gap> 
6.291 
 
>  <logP> 
0.263 
 
>  <lumo_energy> 
-1.113 
 
>  <melting_point> 
9.49 
 
>  <molecular_refractivity> 
22.73 
 
>  <oscillator_strength_1> 
0.0 
 
>  <oscillator_strength_2> 
0.0506 
 
>  <oscillator_strength_3> 
0.1005 
 
>  <oscillator_strength_4> 
0.0263 
 
>  <open_babel_can_smiles> 
CN(N(=O)=O)C 
 
>  <mulliken_charges> 
12 
1   -0.306532 
2   -0.306199 
3   -0.256513 
4   0.637103 
5   -0.425735 
6   -0.42574 
7   0.165835 
8   0.205382 
9   0.170721 
10   0.165685 
11   0.170873 
12   0.20512 
 
>  <lowdin_charges> 
12 
1   -0.354294 
2   -0.355444 
3   -0.078014 
4   0.330299 
5   -0.27255 
6   -0.275403 
7   0.164357 
8   0.183644 
9   0.154787 
10   0.165218 
11   0.154809 
12   0.182591 
 
$$$$ 
 
