PCCDB-ID:  56723 
public computational chemistry database (PCCDB) project, http://pccdb.org 
 
 38 38  0  0  1  0  0  0  0  0999 V2000 
    1.5930    1.8329    0.4242 C   0  0  0  0  0  0  0  0  0  0  0  0 
    0.6393   -0.4498    0.0030 C   0  0  0  0  0  0  0  0  0  0  0  0 
    3.2197    4.6461   -4.2403 C   0  0  0  0  0  0  0  0  0  0  0  0 
    0.2367    4.0452   -5.4886 C   0  0  0  0  0  0  0  0  0  0  0  0 
    4.5155   -1.3289   -2.1443 C   0  0  0  0  0  0  0  0  0  0  0  0 
    3.3990   -2.1864   -0.2100 C   0  0  0  0  0  0  0  0  0  0  0  0 
    1.9399    0.3573    0.1523 C   0  0  0  0  0  0  0  0  0  0  0  0 
    2.2615    3.5534   -3.8873 C   0  0  0  0  0  0  0  0  0  0  0  0 
    0.9675    3.2854   -4.4247 C   0  0  0  0  0  0  0  0  0  0  0  0 
    2.8809    0.1292   -1.0843 C   0  0  1  0  0  0  0  0  0  0  0  0 
    3.7331    1.3822   -1.3596 C   0  0  0  0  0  0  0  0  0  0  0  0 
    2.4413    2.5620   -2.9531 C   0  0  0  0  0  0  0  0  0  0  0  0 
    3.5199    2.3744   -2.1414 N   0  0  0  0  0  0  0  0  0  0  0  0 
    0.4002    2.2341   -3.8705 N   0  0  0  0  0  0  0  0  0  0  0  0 
    3.8676   -0.9697   -0.8750 N   0  0  0  0  0  0  0  0  0  0  0  0 
    4.8569    1.4132   -0.6229 O   0  0  0  0  0  0  0  0  0  0  0  0 
    1.3312    1.7596   -2.9272 O   0  0  0  0  0  0  0  0  0  0  0  0 
    0.9588    1.8914    1.3158 H   0  0  0  0  0  0  0  0  0  0  0  0 
    1.0396    2.2751   -0.4091 H   0  0  0  0  0  0  0  0  0  0  0  0 
    2.4848    2.4387    0.6103 H   0  0  0  0  0  0  0  0  0  0  0  0 
    0.0268   -0.3627    0.9079 H   0  0  0  0  0  0  0  0  0  0  0  0 
    0.8152   -1.5140   -0.1788 H   0  0  0  0  0  0  0  0  0  0  0  0 
    0.0537   -0.0602   -0.8376 H   0  0  0  0  0  0  0  0  0  0  0  0 
    2.7384    5.6317   -4.2112 H   0  0  0  0  0  0  0  0  0  0  0  0 
    3.6336    4.5195   -5.2496 H   0  0  0  0  0  0  0  0  0  0  0  0 
    4.0532    4.6490   -3.5328 H   0  0  0  0  0  0  0  0  0  0  0  0 
    0.0789    5.0881   -5.1886 H   0  0  0  0  0  0  0  0  0  0  0  0 
   -0.7374    3.5863   -5.6766 H   0  0  0  0  0  0  0  0  0  0  0  0 
    0.8057    4.0571   -6.4257 H   0  0  0  0  0  0  0  0  0  0  0  0 
    3.8169   -1.8159   -2.8459 H   0  0  0  0  0  0  0  0  0  0  0  0 
    5.3428   -2.0177   -1.9459 H   0  0  0  0  0  0  0  0  0  0  0  0 
    4.9234   -0.4381   -2.6294 H   0  0  0  0  0  0  0  0  0  0  0  0 
    2.6602   -2.7476   -0.8074 H   0  0  0  0  0  0  0  0  0  0  0  0 
    2.9642   -1.9638    0.7644 H   0  0  0  0  0  0  0  0  0  0  0  0 
    4.2621   -2.8403   -0.0467 H   0  0  0  0  0  0  0  0  0  0  0  0 
    2.4916    0.0050    1.0339 H   0  0  0  0  0  0  0  0  0  0  0  0 
    2.2588   -0.0643   -1.9657 H   0  0  0  0  0  0  0  0  0  0  0  0 
    4.9248    0.4947   -0.2568 H   0  0  0  0  0  0  0  0  0  0  0  0 
  1 20  1  0  0  0  0 
  1 18  1  0  0  0  0 
  2  7  1  0  0  0  0 
  2 21  1  0  0  0  0 
  3 24  1  0  0  0  0 
  3  8  1  0  0  0  0 
  3 26  1  0  0  0  0 
  4 27  1  0  0  0  0 
  4  9  1  0  0  0  0 
  5 31  1  0  0  0  0 
  5 15  1  0  0  0  0 
  6 35  1  0  0  0  0 
  6 34  1  0  0  0  0 
  7  1  1  0  0  0  0 
  7 36  1  0  0  0  0 
  8 12  2  0  0  0  0 
  9  8  1  0  0  0  0 
  9 14  2  0  0  0  0 
 10 37  1  6  0  0  0 
 10 15  1  0  0  0  0 
 10  7  1  0  0  0  0 
 11 10  1  0  0  0  0 
 11 16  1  0  0  0  0 
 12 17  1  0  0  0  0 
 12 13  1  0  0  0  0 
 13 11  2  0  0  0  0 
 14 17  1  0  0  0  0 
 15  6  1  0  0  0  0 
 16 38  1  0  0  0  0 
 19  1  1  0  0  0  0 
 22  2  1  0  0  0  0 
 23  2  1  0  0  0  0 
 25  3  1  0  0  0  0 
 28  4  1  0  0  0  0 
 29  4  1  0  0  0  0 
 30  5  1  0  0  0  0 
 32  5  1  0  0  0  0 
 33  6  1  0  0  0  0 
M  END 
>  <HBA> 
5 
 
>  <HBD> 
1 
 
>  <TPSA> 
58.37 
 
>  <cid> 
56723 
 
>  <dipole> 
2.54 
 
>  <excitation_energy_1> 
4.612 
 
>  <excitation_energy_2> 
4.856 
 
>  <excitation_energy_3> 
5.15 
 
>  <excitation_energy_4> 
5.341 
 
>  <homo_energy> 
-5.698 
 
>  <homo_lumo_gap> 
4.966 
 
>  <logP> 
1.889 
 
>  <lumo_energy> 
-0.732 
 
>  <melting_point> 
82.32 
 
>  <molecular_refractivity> 
67.68 
 
>  <oscillator_strength_1> 
0.3217 
 
>  <oscillator_strength_2> 
0.1446 
 
>  <oscillator_strength_3> 
0.0202 
 
>  <oscillator_strength_4> 
0.002 
 
>  <open_babel_can_smiles> 
CC([C@@H](/C(=N\c1onc(c1C)C)/O)N(C)C)C 
 
>  <mulliken_charges> 
38 
1   -0.473021 
2   -0.46274 
3   -0.538228 
4   -0.524638 
5   -0.315858 
6   -0.303049 
7   -0.091135 
8   0.020268 
9   0.295267 
10   -0.018947 
11   0.493796 
12   0.523297 
13   -0.527735 
14   -0.236508 
15   -0.456327 
16   -0.589742 
17   -0.425528 
18   0.142956 
19   0.173775 
20   0.166074 
21   0.145616 
22   0.144074 
23   0.175061 
24   0.153229 
25   0.156334 
26   0.186099 
27   0.166294 
28   0.178672 
29   0.16561 
30   0.145057 
31   0.158665 
32   0.179647 
33   0.139742 
34   0.167719 
35   0.157292 
36   0.134512 
37   0.17141 
38   0.42299 
 
>  <lowdin_charges> 
38 
1   -0.455026 
2   -0.449329 
3   -0.43572 
4   -0.439992 
5   -0.365916 
6   -0.360351 
7   -0.12316 
8   -0.08582 
9   0.014627 
10   -0.098946 
11   0.146084 
12   0.105341 
13   -0.184634 
14   -0.104165 
15   -0.192982 
16   -0.348764 
17   -0.115675 
18   0.152169 
19   0.163111 
20   0.160042 
21   0.151951 
22   0.147021 
23   0.164149 
24   0.155894 
25   0.156341 
26   0.176199 
27   0.163724 
28   0.172737 
29   0.164662 
30   0.139072 
31   0.155908 
32   0.165011 
33   0.13477 
34   0.159127 
35   0.155925 
36   0.143221 
37   0.161379 
38   0.352016 
 
$$$$ 
 
