PCCDB-ID:  6642 
public computational chemistry database (PCCDB) project, http://pccdb.org 
 
 28 28  0  0  0  0  0  0  0  0999 V2000 
    6.9494    2.0716    2.3806 C   0  0  0  0  0  0  0  0  0  0  0  0 
    5.5540    1.7441    1.8340 C   0  0  0  0  0  0  0  0  0  0  0  0 
    5.0645    2.6882    0.7223 C   0  0  0  0  0  0  0  0  0  0  0  0 
    3.1886    6.4852   -5.0049 C   0  0  0  0  0  0  0  0  0  0  0  0 
    4.2948    6.9552   -4.2927 C   0  0  0  0  0  0  0  0  0  0  0  0 
    2.9430    5.1137   -5.1062 C   0  0  0  0  0  0  0  0  0  0  0  0 
    5.1616    6.0555   -3.6730 C   0  0  0  0  0  0  0  0  0  0  0  0 
    3.8010    4.2022   -4.4915 C   0  0  0  0  0  0  0  0  0  0  0  0 
    5.8794    2.5763   -0.5583 C   0  0  0  0  0  0  0  0  0  0  0  0 
    4.8967    4.6891   -3.7773 C   0  0  0  0  0  0  0  0  0  0  0  0 
    7.3206    4.1443   -2.8220 O   0  0  0  0  0  0  0  0  0  0  0  0 
    5.8859    2.2217   -3.6407 O   0  0  0  0  0  0  0  0  0  0  0  0 
    5.2565    3.4650   -1.5333 O   0  0  0  0  0  0  0  0  0  0  0  0 
    6.0039    3.5291   -2.9939 S   0  0  0  0  0  0  0  0  0  0  0  0 
    7.2060    1.4103    3.2156 H   0  0  0  0  0  0  0  0  0  0  0  0 
    6.9968    3.1045    2.7470 H   0  0  0  0  0  0  0  0  0  0  0  0 
    7.7293    1.9538    1.6199 H   0  0  0  0  0  0  0  0  0  0  0  0 
    4.8286    1.7857    2.6563 H   0  0  0  0  0  0  0  0  0  0  0  0 
    5.5353    0.7085    1.4666 H   0  0  0  0  0  0  0  0  0  0  0  0 
    5.0934    3.7282    1.0719 H   0  0  0  0  0  0  0  0  0  0  0  0 
    4.0184    2.4624    0.4818 H   0  0  0  0  0  0  0  0  0  0  0  0 
    2.5187    7.1908   -5.4886 H   0  0  0  0  0  0  0  0  0  0  0  0 
    4.4862    8.0220   -4.2232 H   0  0  0  0  0  0  0  0  0  0  0  0 
    2.0863    4.7526   -5.6677 H   0  0  0  0  0  0  0  0  0  0  0  0 
    6.0340    6.3973   -3.1267 H   0  0  0  0  0  0  0  0  0  0  0  0 
    3.6375    3.1327   -4.5683 H   0  0  0  0  0  0  0  0  0  0  0  0 
    5.8642    1.5554   -0.9557 H   0  0  0  0  0  0  0  0  0  0  0  0 
    6.9180    2.8905   -0.4181 H   0  0  0  0  0  0  0  0  0  0  0  0 
  1 16  1  0  0  0  0 
  1 15  1  0  0  0  0 
  2  1  1  0  0  0  0 
  2 18  1  0  0  0  0 
  3 20  1  0  0  0  0 
  3  2  1  0  0  0  0 
  4  5  1  0  0  0  0 
  5 23  1  0  0  0  0 
  5  7  2  0  0  0  0 
  6  4  2  0  0  0  0 
  6  8  1  0  0  0  0 
  7 25  1  0  0  0  0 
  8 10  2  0  0  0  0 
  9 28  1  0  0  0  0 
  9  3  1  0  0  0  0 
 10  7  1  0  0  0  0 
 10 14  1  0  0  0  0 
 12 14  1  0  0  0  0 
 13  9  1  0  0  0  0 
 14 11  1  0  0  0  0 
 14 13  1  0  0  0  0 
 17  1  1  0  0  0  0 
 19  2  1  0  0  0  0 
 21  3  1  0  0  0  0 
 22  4  1  0  0  0  0 
 24  6  1  0  0  0  0 
 26  8  1  0  0  0  0 
 27  9  1  0  0  0  0 
M  RAD  2  11   2  12   2 
M  END 
>  <HBA> 
3 
 
>  <HBD> 
0 
 
>  <TPSA> 
51.75 
 
>  <cid> 
6642 
 
>  <dipole> 
3.74 
 
>  <excitation_energy_1> 
5.246 
 
>  <excitation_energy_2> 
5.721 
 
>  <excitation_energy_3> 
5.824 
 
>  <excitation_energy_4> 
6.36 
 
>  <homo_energy> 
-7.399 
 
>  <homo_lumo_gap> 
6.261 
 
>  <logP> 
3.273 
 
>  <lumo_energy> 
-1.137 
 
>  <melting_point> 
28.2 
 
>  <molecular_refractivity> 
55.04 
 
>  <oscillator_strength_1> 
0.0126 
 
>  <oscillator_strength_2> 
0.0022 
 
>  <oscillator_strength_3> 
0.1105 
 
>  <oscillator_strength_4> 
0.0093 
 
>  <open_babel_can_smiles> 
CCCCOS(c1ccccc1)([O])[O] 
 
>  <mulliken_charges> 
28 
1   -0.447905 
2   -0.263132 
3   -0.273103 
4   -0.117271 
5   -0.128065 
6   -0.127903 
7   -0.130679 
8   -0.131554 
9   -0.051964 
10   -0.157139 
11   -0.522362 
12   -0.522028 
13   -0.540511 
14   1.233824 
15   0.149092 
16   0.147063 
17   0.151145 
18   0.143249 
19   0.139144 
20   0.150319 
21   0.15271 
22   0.145575 
23   0.14751 
24   0.147498 
25   0.181316 
26   0.181899 
27   0.168973 
28   0.174299 
 
>  <lowdin_charges> 
28 
1   -0.448699 
2   -0.272042 
3   -0.27745 
4   -0.136749 
5   -0.147704 
6   -0.149273 
7   -0.129102 
8   -0.128019 
9   -0.129176 
10   -0.175298 
11   -0.576154 
12   -0.577083 
13   -0.418934 
14   1.340972 
15   0.154407 
16   0.148288 
17   0.14998 
18   0.149394 
19   0.142052 
20   0.149576 
21   0.152922 
22   0.166838 
23   0.165101 
24   0.167328 
25   0.185158 
26   0.183302 
27   0.154245 
28   0.156119 
 
$$$$ 
 
