PCCDB-ID:  22956 
public computational chemistry database (PCCDB) project, http://pccdb.org 
 
 37 37  0  0  0  0  0  0  0  0999 V2000 
    1.7400    0.8789    0.7085 C   0  0  0  0  0  0  0  0  0  0  0  0 
    6.1111   -1.7786    0.5668 C   0  0  0  0  0  0  0  0  0  0  0  0 
    6.2983    4.6084   -3.4055 C   0  0  0  0  0  0  0  0  0  0  0  0 
    2.7207   -3.9602    1.4153 C   0  0  0  0  0  0  0  0  0  0  0  0 
    2.1510   -2.6464   -0.5129 C   0  0  0  0  0  0  0  0  0  0  0  0 
    3.8062    1.7375   -0.4042 C   0  0  0  0  0  0  0  0  0  0  0  0 
    5.8725    0.4882   -0.4768 C   0  0  0  0  0  0  0  0  0  0  0  0 
    3.2894   -1.6155    1.3829 C   0  0  0  0  0  0  0  0  0  0  0  0 
    3.1896    0.6988    0.3028 C   0  0  0  0  0  0  0  0  0  0  0  0 
    5.2775   -0.5645    0.2242 C   0  0  0  0  0  0  0  0  0  0  0  0 
    5.1380    1.6261   -0.7816 C   0  0  0  0  0  0  0  0  0  0  0  0 
    3.9229   -0.4671    0.6149 C   0  0  0  0  0  0  0  0  0  0  0  0 
    5.7787    3.9098   -1.2165 C   0  0  0  0  0  0  0  0  0  0  0  0 
    6.0415    4.8663   -1.9988 N   0  0  0  0  0  0  0  0  0  0  0  0 
    3.1002   -2.8321    0.5764 N   0  0  0  0  0  0  0  0  0  0  0  0 
    5.5230    4.1151    0.0966 O   0  0  0  0  0  0  0  0  0  0  0  0 
    5.7675    2.5964   -1.5643 O   0  0  0  0  0  0  0  0  0  0  0  0 
    1.3533    1.8315    0.3342 H   0  0  0  0  0  0  0  0  0  0  0  0 
    1.6170    0.8819    1.7984 H   0  0  0  0  0  0  0  0  0  0  0  0 
    1.0972    0.0832    0.3156 H   0  0  0  0  0  0  0  0  0  0  0  0 
    7.0916   -1.7288    0.0839 H   0  0  0  0  0  0  0  0  0  0  0  0 
    5.6061   -2.6984    0.2589 H   0  0  0  0  0  0  0  0  0  0  0  0 
    6.2821   -1.8507    1.6500 H   0  0  0  0  0  0  0  0  0  0  0  0 
    5.9701    3.6177   -3.7442 H   0  0  0  0  0  0  0  0  0  0  0  0 
    7.3728    4.7014   -3.6113 H   0  0  0  0  0  0  0  0  0  0  0  0 
    5.7891    5.3718   -4.0046 H   0  0  0  0  0  0  0  0  0  0  0  0 
    2.6436   -4.8645    0.8019 H   0  0  0  0  0  0  0  0  0  0  0  0 
    1.7502   -3.8153    1.9313 H   0  0  0  0  0  0  0  0  0  0  0  0 
    3.4875   -4.1314    2.1791 H   0  0  0  0  0  0  0  0  0  0  0  0 
    2.1233   -3.5507   -1.1307 H   0  0  0  0  0  0  0  0  0  0  0  0 
    2.4674   -1.8120   -1.1448 H   0  0  0  0  0  0  0  0  0  0  0  0 
    1.1192   -2.4451   -0.1599 H   0  0  0  0  0  0  0  0  0  0  0  0 
    3.2478    2.6344   -0.6523 H   0  0  0  0  0  0  0  0  0  0  0  0 
    6.9114    0.4317   -0.7871 H   0  0  0  0  0  0  0  0  0  0  0  0 
    2.3381   -1.2942    1.8424 H   0  0  0  0  0  0  0  0  0  0  0  0 
    3.9482   -1.8925    2.2159 H   0  0  0  0  0  0  0  0  0  0  0  0 
    5.5796    5.0804    0.2090 H   0  0  0  0  0  0  0  0  0  0  0  0 
  1 19  1  0  0  0  0 
  2 23  1  0  0  0  0 
  3 14  1  0  0  0  0 
  4 28  1  0  0  0  0 
  4 29  1  0  0  0  0 
  5 32  1  0  0  0  0 
  5 15  1  0  0  0  0 
  6  9  2  0  0  0  0 
  7 10  1  0  0  0  0 
  8 35  1  0  0  0  0 
  8 36  1  0  0  0  0 
  9 12  1  0  0  0  0 
  9  1  1  0  0  0  0 
 10  2  1  0  0  0  0 
 10 12  2  0  0  0  0 
 11  7  2  0  0  0  0 
 11  6  1  0  0  0  0 
 12  8  1  0  0  0  0 
 13 16  1  0  0  0  0 
 14 13  2  0  0  0  0 
 15  8  1  0  0  0  0 
 15  4  1  0  0  0  0 
 16 37  1  0  0  0  0 
 17 13  1  0  0  0  0 
 17 11  1  0  0  0  0 
 18  1  1  0  0  0  0 
 20  1  1  0  0  0  0 
 21  2  1  0  0  0  0 
 22  2  1  0  0  0  0 
 24  3  1  0  0  0  0 
 25  3  1  0  0  0  0 
 26  3  1  0  0  0  0 
 27  4  1  0  0  0  0 
 30  5  1  0  0  0  0 
 31  5  1  0  0  0  0 
 33  6  1  0  0  0  0 
 34  7  1  0  0  0  0 
M  END 
>  <HBA> 
4 
 
>  <HBD> 
1 
 
>  <TPSA> 
41.57 
 
>  <cid> 
22956 
 
>  <dipole> 
2.19 
 
>  <excitation_energy_1> 
4.785 
 
>  <excitation_energy_2> 
5.043 
 
>  <excitation_energy_3> 
5.071 
 
>  <excitation_energy_4> 
5.25 
 
>  <homo_energy> 
-5.81 
 
>  <homo_lumo_gap> 
5.714 
 
>  <logP> 
2.474 
 
>  <lumo_energy> 
-0.095 
 
>  <melting_point> 
82.49 
 
>  <molecular_refractivity> 
68.54 
 
>  <oscillator_strength_1> 
0.0005 
 
>  <oscillator_strength_2> 
0.0009 
 
>  <oscillator_strength_3> 
0.0004 
 
>  <oscillator_strength_4> 
0.033 
 
>  <open_babel_can_smiles> 
C/N=C(\Oc1cc(C)c(c(c1)C)CN(C)C)/O 
 
>  <mulliken_charges> 
37 
1   -0.540874 
2   -0.54256 
3   -0.323333 
4   -0.292664 
5   -0.303386 
6   -0.212276 
7   -0.233201 
8   -0.209495 
9   0.125823 
10   0.13985 
11   0.376554 
12   0.04711 
13   0.700653 
14   -0.479692 
15   -0.360679 
16   -0.590223 
17   -0.538436 
18   0.156748 
19   0.165046 
20   0.16503 
21   0.150454 
22   0.190433 
23   0.154534 
24   0.15282 
25   0.153879 
26   0.152197 
27   0.150056 
28   0.117094 
29   0.148006 
30   0.148927 
31   0.165296 
32   0.11376 
33   0.132036 
34   0.13345 
35   0.120899 
36   0.144476 
37   0.421688 
 
>  <lowdin_charges> 
37 
1   -0.445231 
2   -0.447864 
3   -0.352323 
4   -0.357619 
5   -0.360488 
6   -0.191714 
7   -0.186718 
8   -0.200942 
9   0.002348 
10   0.01517 
11   0.105629 
12   -0.039447 
13   0.192013 
14   -0.263769 
15   -0.179796 
16   -0.360762 
17   -0.159019 
18   0.157592 
19   0.158621 
20   0.161094 
21   0.154401 
22   0.174134 
23   0.154956 
24   0.143483 
25   0.149409 
26   0.152155 
27   0.151022 
28   0.119476 
29   0.149733 
30   0.150667 
31   0.159672 
32   0.116392 
33   0.163796 
34   0.163874 
35   0.129522 
36   0.151385 
37   0.369147 
 
$$$$ 
 
