PCCDB-ID:  62258 
public computational chemistry database (PCCDB) project, http://pccdb.org 
 
 22 22  0  0  1  0  0  0  0  0999 V2000 
    0.8585   -0.1855    0.8847 C   0  0  0  0  0  0  0  0  0  0  0  0 
    5.3582    0.2295    4.3519 C   0  0  0  0  0  0  0  0  0  0  0  0 
    4.8281   -0.7977    3.5698 C   0  0  0  0  0  0  0  0  0  0  0  0 
    5.0905    1.5628    4.0270 C   0  0  0  0  0  0  0  0  0  0  0  0 
    4.0309   -0.4963    2.4656 C   0  0  0  0  0  0  0  0  0  0  0  0 
    4.2947    1.8640    2.9269 C   0  0  0  0  0  0  0  0  0  0  0  0 
    2.1661    0.1787    0.1390 C   0  0  2  0  0  0  0  0  0  0  0  0 
    3.7530    0.8390    2.1328 C   0  0  0  0  0  0  0  0  0  0  0  0 
    2.9062    1.2409    0.9646 C   0  0  0  0  0  0  0  0  0  0  0  0 
    1.9687    0.7045   -1.2087 N   0  0  0  0  0  0  0  0  0  0  0  0 
    2.7486    2.4230    0.6897 O   0  0  0  0  0  0  0  0  0  0  0  0 
    1.0475   -0.5971    1.8830 H   0  0  0  0  0  0  0  0  0  0  0  0 
    0.3020   -0.9367    0.3119 H   0  0  0  0  0  0  0  0  0  0  0  0 
    0.2273    0.7039    0.9923 H   0  0  0  0  0  0  0  0  0  0  0  0 
    5.9797   -0.0077    5.2114 H   0  0  0  0  0  0  0  0  0  0  0  0 
    5.0368   -1.8348    3.8174 H   0  0  0  0  0  0  0  0  0  0  0  0 
    5.5031    2.3644    4.6335 H   0  0  0  0  0  0  0  0  0  0  0  0 
    3.6344   -1.3085    1.8655 H   0  0  0  0  0  0  0  0  0  0  0  0 
    4.0754    2.8913    2.6556 H   0  0  0  0  0  0  0  0  0  0  0  0 
    2.7846   -0.7242    0.0661 H   0  0  0  0  0  0  0  0  0  0  0  0 
    1.7333    1.6932   -1.1326 H   0  0  0  0  0  0  0  0  0  0  0  0 
    1.1878    0.2315   -1.6582 H   0  0  0  0  0  0  0  0  0  0  0  0 
  1 14  1  0  0  0  0 
  1 12  1  0  0  0  0 
  2 15  1  0  0  0  0 
  3 16  1  0  0  0  0 
  3  2  2  0  0  0  0 
  4  2  1  0  0  0  0 
  4 17  1  0  0  0  0 
  5  3  1  0  0  0  0 
  6  4  2  0  0  0  0 
  7 20  1  6  0  0  0 
  7  1  1  0  0  0  0 
  7  9  1  0  0  0  0 
  8  5  2  0  0  0  0 
  8  6  1  0  0  0  0 
  9  8  1  0  0  0  0 
 10 21  1  0  0  0  0 
 10  7  1  0  0  0  0 
 11  9  2  0  0  0  0 
 13  1  1  0  0  0  0 
 18  5  1  0  0  0  0 
 19  6  1  0  0  0  0 
 22 10  1  0  0  0  0 
M  END 
>  <HBA> 
2 
 
>  <HBD> 
1 
 
>  <TPSA> 
43.09 
 
>  <cid> 
62258 
 
>  <dipole> 
3.11 
 
>  <excitation_energy_1> 
3.716 
 
>  <excitation_energy_2> 
3.954 
 
>  <excitation_energy_3> 
4.684 
 
>  <excitation_energy_4> 
5.119 
 
>  <homo_energy> 
-6.229 
 
>  <homo_lumo_gap> 
4.64 
 
>  <logP> 
1.917 
 
>  <lumo_energy> 
-1.589 
 
>  <melting_point> 
91.8 
 
>  <molecular_refractivity> 
44.15 
 
>  <oscillator_strength_1> 
0.0077 
 
>  <oscillator_strength_2> 
0.0092 
 
>  <oscillator_strength_3> 
0.0213 
 
>  <oscillator_strength_4> 
0.2484 
 
>  <open_babel_can_smiles> 
C[C@H](C(=O)c1ccccc1)N 
 
>  <mulliken_charges> 
22 
1   -0.463711 
2   -0.117615 
3   -0.136449 
4   -0.132781 
5   -0.177732 
6   -0.152474 
7   -0.041422 
8   0.078629 
9   0.40592 
10   -0.721517 
11   -0.475961 
12   0.150588 
13   0.14959 
14   0.159445 
15   0.139121 
16   0.137765 
17   0.139757 
18   0.141572 
19   0.165766 
20   0.143572 
21   0.316971 
22   0.290966 
 
>  <lowdin_charges> 
22 
1   -0.459143 
2   -0.137133 
3   -0.156279 
4   -0.155708 
5   -0.149853 
6   -0.124695 
7   -0.093066 
8   -0.047876 
9   0.163629 
10   -0.550255 
11   -0.245076 
12   0.153687 
13   0.15382 
14   0.157151 
15   0.16243 
16   0.160343 
17   0.163625 
18   0.163979 
19   0.176655 
20   0.146145 
21   0.263875 
22   0.253744 
 
$$$$ 
 
