PCCDB-ID:  69278 
public computational chemistry database (PCCDB) project, http://pccdb.org 
 
 15 15  0  0  0  0  0  0  0  0999 V2000 
    3.0072    1.1267   -0.5429 C   0  0  0  0  0  0  0  0  0  0  0  0 
    2.3602   -2.4138    0.0820 C   0  0  0  0  0  0  0  0  0  0  0  0 
    4.4665   -1.2747   -0.1295 C   0  0  0  0  0  0  0  0  0  0  0  0 
    3.0790   -3.5846    0.2833 C   0  0  0  0  0  0  0  0  0  0  0  0 
    5.0753   -2.5140    0.0848 C   0  0  0  0  0  0  0  0  0  0  0  0 
    3.0680   -1.2224   -0.1314 C   0  0  0  0  0  0  0  0  0  0  0  0 
    4.4204   -3.6601    0.2890 N   0  0  0  0  0  0  0  0  0  0  0  0 
    2.3264   -0.1031   -0.3254 O   0  0  0  0  0  0  0  0  0  0  0  0 
    2.2278    1.8791   -0.6721 H   0  0  0  0  0  0  0  0  0  0  0  0 
    3.6285    1.0861   -1.4464 H   0  0  0  0  0  0  0  0  0  0  0  0 
    3.6341    1.3949    0.3169 H   0  0  0  0  0  0  0  0  0  0  0  0 
    1.2753   -2.4021    0.0868 H   0  0  0  0  0  0  0  0  0  0  0  0 
    5.0777   -0.3939   -0.2875 H   0  0  0  0  0  0  0  0  0  0  0  0 
    2.5484   -4.5208    0.4499 H   0  0  0  0  0  0  0  0  0  0  0  0 
    6.1628   -2.5774    0.0904 H   0  0  0  0  0  0  0  0  0  0  0  0 
  1  8  1  0  0  0  0 
  1 11  1  0  0  0  0 
  2 12  1  0  0  0  0 
  2  4  2  0  0  0  0 
  3  5  1  0  0  0  0 
  4  7  1  0  0  0  0 
  4 14  1  0  0  0  0 
  5 15  1  0  0  0  0 
  5  7  2  0  0  0  0 
  6  3  2  0  0  0  0 
  6  2  1  0  0  0  0 
  8  6  1  0  0  0  0 
  9  1  1  0  0  0  0 
 10  1  1  0  0  0  0 
 13  3  1  0  0  0  0 
M  END 
>  <HBA> 
2 
 
>  <HBD> 
0 
 
>  <TPSA> 
22.12 
 
>  <cid> 
69278 
 
>  <dipole> 
3.23 
 
>  <excitation_energy_1> 
5.149 
 
>  <excitation_energy_2> 
5.322 
 
>  <excitation_energy_3> 
5.4 
 
>  <excitation_energy_4> 
5.933 
 
>  <homo_energy> 
-6.667 
 
>  <homo_lumo_gap> 
6.46 
 
>  <logP> 
1.09 
 
>  <lumo_energy> 
-0.207 
 
>  <melting_point> 
23.93 
 
>  <molecular_refractivity> 
30.73 
 
>  <oscillator_strength_1> 
0.0008 
 
>  <oscillator_strength_2> 
0.0034 
 
>  <oscillator_strength_3> 
0.0021 
 
>  <oscillator_strength_4> 
0.0695 
 
>  <open_babel_can_smiles> 
COc1ccncc1 
 
>  <mulliken_charges> 
15 
1   -0.220513 
2   -0.184192 
3   -0.206383 
4   0.034905 
5   0.035397 
6   0.402612 
7   -0.418175 
8   -0.496848 
9   0.175802 
10   0.158379 
11   0.158389 
12   0.144006 
13   0.136248 
14   0.140759 
15   0.139614 
 
>  <lowdin_charges> 
15 
1   -0.278593 
2   -0.199909 
3   -0.236396 
4   -0.084508 
5   -0.078042 
6   0.119545 
7   -0.169465 
8   -0.18733 
9   0.167191 
10   0.14934 
11   0.150012 
12   0.169772 
13   0.167289 
14   0.157645 
15   0.153449 
 
$$$$ 
 
