PCCDB-ID:  16503 
public computational chemistry database (PCCDB) project, http://pccdb.org 
 
 23 23  0  0  0  0  0  0  0  0999 V2000 
    3.8800   -0.3288    0.9324 C   0  0  0  0  0  0  0  0  0  0  0  0 
    2.3833    4.4768   -0.3472 C   0  0  0  0  0  0  0  0  0  0  0  0 
    2.6538   -0.0896    0.0327 C   0  0  0  0  0  0  0  0  0  0  0  0 
    3.6381    0.6143   -3.5734 C   0  0  0  0  0  0  0  0  0  0  0  0 
    3.6488    2.0068   -3.6450 C   0  0  0  0  0  0  0  0  0  0  0  0 
    3.3010   -0.0119   -2.3756 C   0  0  0  0  0  0  0  0  0  0  0  0 
    3.3183    2.7448   -2.5138 C   0  0  0  0  0  0  0  0  0  0  0  0 
    2.6632    2.9951   -0.1131 C   0  0  0  0  0  0  0  0  0  0  0  0 
    2.9823    0.7079   -1.2152 C   0  0  0  0  0  0  0  0  0  0  0  0 
    2.9932    2.1270   -1.2910 C   0  0  0  0  0  0  0  0  0  0  0  0 
    2.6123    2.5580    1.0287 O   0  0  0  0  0  0  0  0  0  0  0  0 
    3.6021   -0.9415    1.7976 H   0  0  0  0  0  0  0  0  0  0  0  0 
    4.2735    0.6212    1.3021 H   0  0  0  0  0  0  0  0  0  0  0  0 
    4.6755   -0.8510    0.3880 H   0  0  0  0  0  0  0  0  0  0  0  0 
    1.6319    4.6346   -1.1284 H   0  0  0  0  0  0  0  0  0  0  0  0 
    3.2943    5.0057   -0.6530 H   0  0  0  0  0  0  0  0  0  0  0  0 
    2.0328    4.9050    0.5934 H   0  0  0  0  0  0  0  0  0  0  0  0 
    1.8816    0.4127    0.6178 H   0  0  0  0  0  0  0  0  0  0  0  0 
    2.2511   -1.0601   -0.2847 H   0  0  0  0  0  0  0  0  0  0  0  0 
    3.8835    0.0166   -4.4474 H   0  0  0  0  0  0  0  0  0  0  0  0 
    3.9066    2.5129   -4.5710 H   0  0  0  0  0  0  0  0  0  0  0  0 
    3.2804   -1.0985   -2.3313 H   0  0  0  0  0  0  0  0  0  0  0  0 
    3.3212    3.8273   -2.5804 H   0  0  0  0  0  0  0  0  0  0  0  0 
  1 13  1  0  0  0  0 
  1 12  1  0  0  0  0 
  2  8  1  0  0  0  0 
  2 17  1  0  0  0  0 
  3 18  1  0  0  0  0 
  3  1  1  0  0  0  0 
  4  6  1  0  0  0  0 
  5  4  2  0  0  0  0 
  5  7  1  0  0  0  0 
  6 22  1  0  0  0  0 
  6  9  2  0  0  0  0 
  7 10  2  0  0  0  0 
  8 11  2  0  0  0  0 
  9  3  1  0  0  0  0 
 10  9  1  0  0  0  0 
 10  8  1  0  0  0  0 
 14  1  1  0  0  0  0 
 15  2  1  0  0  0  0 
 16  2  1  0  0  0  0 
 19  3  1  0  0  0  0 
 20  4  1  0  0  0  0 
 21  5  1  0  0  0  0 
 23  7  1  0  0  0  0 
M  END 
>  <HBA> 
1 
 
>  <HBD> 
0 
 
>  <TPSA> 
17.07 
 
>  <cid> 
16503 
 
>  <dipole> 
2.66 
 
>  <excitation_energy_1> 
3.683 
 
>  <excitation_energy_2> 
4.541 
 
>  <excitation_energy_3> 
5.132 
 
>  <excitation_energy_4> 
5.488 
 
>  <homo_energy> 
-6.582 
 
>  <homo_lumo_gap> 
5.159 
 
>  <logP> 
2.452 
 
>  <lumo_energy> 
-1.423 
 
>  <melting_point> 
42.39 
 
>  <molecular_refractivity> 
46.41 
 
>  <oscillator_strength_1> 
0.0003 
 
>  <oscillator_strength_2> 
0.0447 
 
>  <oscillator_strength_3> 
0.1787 
 
>  <oscillator_strength_4> 
0.014 
 
>  <open_babel_can_smiles> 
CCc1ccccc1C(=O)C 
 
>  <mulliken_charges> 
23 
1   -0.438824 
2   -0.540399 
3   -0.317955 
4   -0.11459 
5   -0.133734 
6   -0.184802 
7   -0.185355 
8   0.395963 
9   0.126571 
10   0.044713 
11   -0.456451 
12   0.142186 
13   0.170876 
14   0.135951 
15   0.169134 
16   0.172181 
17   0.180693 
18   0.16907 
19   0.12977 
20   0.136323 
21   0.133901 
22   0.130641 
23   0.134136 
 
>  <lowdin_charges> 
23 
1   -0.44161 
2   -0.478111 
3   -0.275216 
4   -0.139082 
5   -0.164282 
6   -0.163462 
7   -0.146237 
8   0.162615 
9   0.030399 
10   -0.059089 
11   -0.242907 
12   0.150511 
13   0.161127 
14   0.144344 
15   0.167885 
16   0.170787 
17   0.174696 
18   0.167259 
19   0.142218 
20   0.161759 
21   0.160298 
22   0.155956 
23   0.160144 
 
$$$$ 
 
