PCCDB-ID:  17950 
public computational chemistry database (PCCDB) project, http://pccdb.org 
 
 30 31  0  0  0  0  0  0  0  0999 V2000 
    4.6036   -4.9463    2.4341 C   0  0  0  0  0  0  0  0  0  0  0  0 
   11.1097   -4.2251   -2.1551 C   0  0  0  0  0  0  0  0  0  0  0  0 
    9.9588   -4.3077   -1.3617 C   0  0  0  0  0  0  0  0  0  0  0  0 
   11.7519   -3.0110   -2.3577 C   0  0  0  0  0  0  0  0  0  0  0  0 
    6.4684   -3.9793    1.2058 C   0  0  0  0  0  0  0  0  0  0  0  0 
    7.6367   -4.3222    0.2890 C   0  0  0  0  0  0  0  0  0  0  0  0 
   11.1465    0.4882   -1.6099 C   0  0  0  0  0  0  0  0  0  0  0  0 
   10.4932    0.2794   -0.2530 C   0  0  0  0  0  0  0  0  0  0  0  0 
    9.4529   -3.1588   -0.7490 C   0  0  0  0  0  0  0  0  0  0  0  0 
   11.2410   -1.8575   -1.7529 C   0  0  0  0  0  0  0  0  0  0  0  0 
   10.1042   -1.9224   -0.9397 C   0  0  0  0  0  0  0  0  0  0  0  0 
    5.6679   -5.1720    1.4613 N   0  0  0  0  0  0  0  0  0  0  0  0 
    8.3479   -3.1142    0.0485 O   0  0  0  0  0  0  0  0  0  0  0  0 
   11.8966   -0.6687   -1.9757 O   0  0  0  0  0  0  0  0  0  0  0  0 
    9.5830   -0.8153   -0.3113 O   0  0  0  0  0  0  0  0  0  0  0  0 
    4.0024   -5.8559    2.5334 H   0  0  0  0  0  0  0  0  0  0  0  0 
    3.9268   -4.1084    2.1829 H   0  0  0  0  0  0  0  0  0  0  0  0 
    5.0475   -4.7311    3.4131 H   0  0  0  0  0  0  0  0  0  0  0  0 
   11.4986   -5.1249   -2.6227 H   0  0  0  0  0  0  0  0  0  0  0  0 
    9.4711   -5.2644   -1.2184 H   0  0  0  0  0  0  0  0  0  0  0  0 
   12.6380   -2.9238   -2.9778 H   0  0  0  0  0  0  0  0  0  0  0  0 
    5.8973   -3.1413    0.7648 H   0  0  0  0  0  0  0  0  0  0  0  0 
    6.8670   -3.6195    2.1620 H   0  0  0  0  0  0  0  0  0  0  0  0 
    7.2732   -4.7433   -0.6616 H   0  0  0  0  0  0  0  0  0  0  0  0 
    8.2830   -5.0704    0.7660 H   0  0  0  0  0  0  0  0  0  0  0  0 
   11.8547    1.3211   -1.5902 H   0  0  0  0  0  0  0  0  0  0  0  0 
   10.3766    0.6895   -2.3680 H   0  0  0  0  0  0  0  0  0  0  0  0 
    9.9066    1.1520    0.0468 H   0  0  0  0  0  0  0  0  0  0  0  0 
   11.2643    0.0861    0.5064 H   0  0  0  0  0  0  0  0  0  0  0  0 
    5.2513   -5.4855    0.5856 H   0  0  0  0  0  0  0  0  0  0  0  0 
  1 16  1  0  0  0  0 
  1 18  1  0  0  0  0 
  2  3  1  0  0  0  0 
  3 20  1  0  0  0  0 
  3  9  2  0  0  0  0 
  4  2  2  0  0  0  0 
  4 10  1  0  0  0  0 
  5 12  1  0  0  0  0 
  5 23  1  0  0  0  0 
  6 25  1  0  0  0  0 
  6  5  1  0  0  0  0 
  7 26  1  0  0  0  0 
  7  8  1  0  0  0  0 
  8 28  1  0  0  0  0 
  8 29  1  0  0  0  0 
  9 13  1  0  0  0  0 
 10 11  2  0  0  0  0 
 11  9  1  0  0  0  0 
 11 15  1  0  0  0  0 
 12  1  1  0  0  0  0 
 13  6  1  0  0  0  0 
 14 10  1  0  0  0  0 
 14  7  1  0  0  0  0 
 15  8  1  0  0  0  0 
 17  1  1  0  0  0  0 
 19  2  1  0  0  0  0 
 21  4  1  0  0  0  0 
 22  5  1  0  0  0  0 
 24  6  1  0  0  0  0 
 27  7  1  0  0  0  0 
 30 12  1  0  0  0  0 
M  END 
>  <HBA> 
4 
 
>  <HBD> 
1 
 
>  <TPSA> 
39.72 
 
>  <cid> 
17950 
 
>  <dipole> 
1.53 
 
>  <excitation_energy_1> 
4.921 
 
>  <excitation_energy_2> 
5.17 
 
>  <excitation_energy_3> 
5.277 
 
>  <excitation_energy_4> 
5.408 
 
>  <homo_energy> 
-5.429 
 
>  <homo_lumo_gap> 
5.94 
 
>  <logP> 
1.447 
 
>  <lumo_energy> 
0.512 
 
>  <melting_point> 
69.07 
 
>  <molecular_refractivity> 
56.22 
 
>  <oscillator_strength_1> 
0.0023 
 
>  <oscillator_strength_2> 
0.0142 
 
>  <oscillator_strength_3> 
0.0009 
 
>  <oscillator_strength_4> 
0.0061 
 
>  <open_babel_can_smiles> 
CNCCOc1cccc2c1OCCO2 
 
>  <mulliken_charges> 
30 
1   -0.29852 
2   -0.144659 
3   -0.209044 
4   -0.190379 
5   -0.13931 
6   -0.031373 
7   -0.057311 
8   -0.058667 
9   0.330992 
10   0.336895 
11   0.262625 
12   -0.549273 
13   -0.521851 
14   -0.525367 
15   -0.515461 
16   0.14975 
17   0.122988 
18   0.154891 
19   0.126605 
20   0.133254 
21   0.133106 
22   0.130572 
23   0.155793 
24   0.13031 
25   0.15387 
26   0.15594 
27   0.157014 
28   0.156438 
29   0.156463 
30   0.293707 
 
>  <lowdin_charges> 
30 
1   -0.359045 
2   -0.157193 
3   -0.227852 
4   -0.195939 
5   -0.208087 
6   -0.130956 
7   -0.142384 
8   -0.141666 
9   0.088532 
10   0.065511 
11   0.032198 
12   -0.363371 
13   -0.191274 
14   -0.209148 
15   -0.200704 
16   0.151822 
17   0.123342 
18   0.149511 
19   0.158728 
20   0.16344 
21   0.165842 
22   0.128074 
23   0.151632 
24   0.133481 
25   0.147158 
26   0.16 
27   0.14851 
28   0.160507 
29   0.147891 
30   0.251442 
 
$$$$ 
 
