PCCDB-ID:  25831 
public computational chemistry database (PCCDB) project, http://pccdb.org 
 
 22 21  0  0  0  0  0  0  0  0999 V2000 
    0.8988    0.0142   -0.0744 C   0  0  0  0  0  0  0  0  0  0  0  0 
    0.7602   -1.1343    0.9488 C   0  0  0  0  0  0  0  0  0  0  0  0 
    3.2845    0.8221   -0.3101 C   0  0  0  0  0  0  0  0  0  0  0  0 
    1.8334   -0.3115    3.0220 C   0  0  0  0  0  0  0  0  0  0  0  0 
    4.4191    0.5495   -0.8610 N   0  0  0  0  0  0  0  0  0  0  0  0 
    3.0255    1.8427    0.6091 N   0  0  0  0  0  0  0  0  0  0  0  0 
    1.1337    0.7726    2.9814 N   0  0  0  0  0  0  0  0  0  0  0  0 
    2.6477   -0.7389    4.0796 N   0  0  0  0  0  0  0  0  0  0  0  0 
    2.1742    0.1142   -0.7435 N   0  0  0  0  0  0  0  0  0  0  0  0 
    1.8104   -1.1931    1.9632 N   0  0  0  0  0  0  0  0  0  0  0  0 
    0.6696    0.9628    0.4113 H   0  0  0  0  0  0  0  0  0  0  0  0 
    0.1162   -0.1395   -0.8302 H   0  0  0  0  0  0  0  0  0  0  0  0 
    0.8019   -2.0905    0.4153 H   0  0  0  0  0  0  0  0  0  0  0  0 
   -0.2299   -1.0526    1.4201 H   0  0  0  0  0  0  0  0  0  0  0  0 
    5.1478    1.1727   -0.5096 H   0  0  0  0  0  0  0  0  0  0  0  0 
    3.8729    2.2212    1.0121 H   0  0  0  0  0  0  0  0  0  0  0  0 
    2.3247    1.6547    1.3258 H   0  0  0  0  0  0  0  0  0  0  0  0 
    1.2816    1.3352    3.8201 H   0  0  0  0  0  0  0  0  0  0  0  0 
    2.8954    0.0014    4.7245 H   0  0  0  0  0  0  0  0  0  0  0  0 
    3.4693   -1.2650    3.8001 H   0  0  0  0  0  0  0  0  0  0  0  0 
    2.4434   -0.6413   -1.3597 H   0  0  0  0  0  0  0  0  0  0  0  0 
    2.1266   -2.1265    2.1860 H   0  0  0  0  0  0  0  0  0  0  0  0 
  1 11  1  0  0  0  0 
  1  2  1  0  0  0  0 
  2 14  1  0  0  0  0 
  2 10  1  0  0  0  0 
  3  6  2  0  0  0  0 
  4  8  2  0  0  0  0 
  5 15  1  0  0  0  0 
  5  3  1  0  0  0  0 
  6 16  1  0  0  0  0 
  6 17  1  0  0  0  0 
  7  4  1  0  0  0  0 
  7 18  1  0  0  0  0 
  8 19  1  0  0  0  0 
  9  3  1  0  0  0  0 
  9  1  1  0  0  0  0 
 10 22  1  0  0  0  0 
 10  4  1  0  0  0  0 
 12  1  1  0  0  0  0 
 13  2  1  0  0  0  0 
 20  8  1  0  0  0  0 
 21  9  1  0  0  0  0 
M  RAD  2   5   2   7   2 
M  END 
>  <HBA> 
6 
 
>  <HBD> 
4 
 
>  <TPSA> 
128.8 
 
>  <cid> 
25831 
 
>  <dipole> 
4.94 
 
>  <excitation_energy_1> 
4.384 
 
>  <excitation_energy_2> 
5.038 
 
>  <excitation_energy_3> 
5.173 
 
>  <excitation_energy_4> 
5.307 
 
>  <homo_energy> 
-5.2 
 
>  <homo_lumo_gap> 
6.196 
 
>  <logP> 
0.334 
 
>  <lumo_energy> 
0.996 
 
>  <melting_point> 
227.49 
 
>  <molecular_refractivity> 
39.54 
 
>  <oscillator_strength_1> 
0.0034 
 
>  <oscillator_strength_2> 
0.0066 
 
>  <oscillator_strength_3> 
0.0027 
 
>  <oscillator_strength_4> 
0.0009 
 
>  <open_babel_can_smiles> 
[NH]C(=[NH2])NCCNC(=[NH2])[NH] 
 
>  <mulliken_charges> 
22 
1   -0.157516 
2   -0.113757 
3   0.588818 
4   0.600803 
5   -0.677169 
6   -0.78061 
7   -0.670413 
8   -0.755472 
9   -0.565319 
10   -0.579949 
11   0.193588 
12   0.14358 
13   0.132763 
14   0.156848 
15   0.251956 
16   0.305248 
17   0.360049 
18   0.271971 
19   0.324637 
20   0.327067 
21   0.319288 
22   0.323591 
 
>  <lowdin_charges> 
22 
1   -0.211241 
2   -0.203648 
3   0.132777 
4   0.13401 
5   -0.518168 
6   -0.521254 
7   -0.502597 
8   -0.505131 
9   -0.294664 
10   -0.292234 
11   0.171557 
12   0.15026 
13   0.14525 
14   0.150432 
15   0.239394 
16   0.2698 
17   0.284382 
18   0.250184 
19   0.280144 
20   0.281001 
21   0.281282 
22   0.278463 
 
$$$$ 
 
