PCCDB-ID:  16364 
public computational chemistry database (PCCDB) project, http://pccdb.org 
 
 34 36  0  0  0  0  0  0  0  0999 V2000 
   -3.7747   -0.1853    1.0985 C   0  0  0  0  0  0  0  0  0  0  0  0 
    3.7771   -0.2083    1.4373 C   0  0  0  0  0  0  0  0  0  0  0  0 
   -3.3864   -1.2620    0.2986 C   0  0  0  0  0  0  0  0  0  0  0  0 
    3.4560   -1.2821    0.6045 C   0  0  0  0  0  0  0  0  0  0  0  0 
   -2.8656    0.8349    1.3571 C   0  0  0  0  0  0  0  0  0  0  0  0 
    2.8535    0.8164    1.6152 C   0  0  0  0  0  0  0  0  0  0  0  0 
   -2.0980   -1.3016   -0.2307 C   0  0  0  0  0  0  0  0  0  0  0  0 
    2.2196   -1.3141   -0.0375 C   0  0  0  0  0  0  0  0  0  0  0  0 
   -0.6633    1.9259    1.1565 C   0  0  0  0  0  0  0  0  0  0  0  0 
    0.6850    1.9215    1.2178 C   0  0  0  0  0  0  0  0  0  0  0  0 
    0.1213    1.0942   -2.7092 C   0  0  0  0  0  0  0  0  0  0  0  0 
    0.1468   -0.3163   -2.1003 C   0  0  0  0  0  0  0  0  0  0  0  0 
   -1.5608    0.8180    0.8290 C   0  0  0  0  0  0  0  0  0  0  0  0 
    1.6012    0.8076    0.9726 C   0  0  0  0  0  0  0  0  0  0  0  0 
   -1.1808   -0.2671    0.0040 C   0  0  0  0  0  0  0  0  0  0  0  0 
    1.2906   -0.2743    0.1144 C   0  0  0  0  0  0  0  0  0  0  0  0 
    0.1772    0.9999   -4.1728 N   0  0  0  0  0  0  0  0  0  0  0  0 
    0.0864   -0.3106   -0.6383 N   0  0  0  0  0  0  0  0  0  0  0  0 
   -4.7769   -0.1414    1.5155 H   0  0  0  0  0  0  0  0  0  0  0  0 
    4.7379   -0.1704    1.9428 H   0  0  0  0  0  0  0  0  0  0  0  0 
   -4.0821   -2.0697    0.0877 H   0  0  0  0  0  0  0  0  0  0  0  0 
    4.1629   -2.0943    0.4567 H   0  0  0  0  0  0  0  0  0  0  0  0 
   -3.1615    1.6763    1.9797 H   0  0  0  0  0  0  0  0  0  0  0  0 
    3.0970    1.6554    2.2632 H   0  0  0  0  0  0  0  0  0  0  0  0 
   -1.7883   -2.1396   -0.8486 H   0  0  0  0  0  0  0  0  0  0  0  0 
    1.9604   -2.1520   -0.6787 H   0  0  0  0  0  0  0  0  0  0  0  0 
   -1.1657    2.8403    1.4696 H   0  0  0  0  0  0  0  0  0  0  0  0 
    1.1628    2.8326    1.5758 H   0  0  0  0  0  0  0  0  0  0  0  0 
    0.9295    1.6937   -2.2557 H   0  0  0  0  0  0  0  0  0  0  0  0 
   -0.8234    1.5767   -2.4334 H   0  0  0  0  0  0  0  0  0  0  0  0 
    1.0613   -0.8329   -2.4149 H   0  0  0  0  0  0  0  0  0  0  0  0 
   -0.6929   -0.8864   -2.5093 H   0  0  0  0  0  0  0  0  0  0  0  0 
    1.1194    0.7412   -4.4643 H   0  0  0  0  0  0  0  0  0  0  0  0 
   -0.0007    1.9133   -4.5861 H   0  0  0  0  0  0  0  0  0  0  0  0 
  1  5  1  0  0  0  0 
  1 19  1  0  0  0  0 
  2  6  1  0  0  0  0 
  2 20  1  0  0  0  0 
  3  1  2  0  0  0  0 
  4  2  2  0  0  0  0 
  5 23  1  0  0  0  0 
  6 24  1  0  0  0  0 
  7 15  2  0  0  0  0 
  7  3  1  0  0  0  0 
  8 16  2  0  0  0  0 
  8  4  1  0  0  0  0 
  9 10  2  0  0  0  0 
  9 27  1  0  0  0  0 
 10 28  1  0  0  0  0 
 11 30  1  0  0  0  0 
 11 29  1  0  0  0  0 
 11 12  1  0  0  0  0 
 12 18  1  0  0  0  0 
 13  9  1  0  0  0  0 
 13  5  2  0  0  0  0 
 14 10  1  0  0  0  0 
 14  6  2  0  0  0  0 
 15 13  1  0  0  0  0 
 16 14  1  0  0  0  0 
 17 11  1  0  0  0  0 
 18 15  1  0  0  0  0 
 18 16  1  0  0  0  0 
 21  3  1  0  0  0  0 
 22  4  1  0  0  0  0 
 25  7  1  0  0  0  0 
 26  8  1  0  0  0  0 
 31 12  1  0  0  0  0 
 32 12  1  0  0  0  0 
 33 17  1  0  0  0  0 
 34 17  1  0  0  0  0 
M  END 
>  <HBA> 
1 
 
>  <HBD> 
1 
 
>  <TPSA> 
29.26 
 
>  <cid> 
16364 
 
>  <dipole> 
1.26 
 
>  <excitation_energy_1> 
2.958 
 
>  <excitation_energy_2> 
4.013 
 
>  <excitation_energy_3> 
4.072 
 
>  <excitation_energy_4> 
4.44 
 
>  <homo_energy> 
-5.007 
 
>  <homo_lumo_gap> 
3.886 
 
>  <logP> 
4.032 
 
>  <lumo_energy> 
-1.121 
 
>  <melting_point> 
164.01 
 
>  <molecular_refractivity> 
80.26 
 
>  <oscillator_strength_1> 
0.0105 
 
>  <oscillator_strength_2> 
0.0103 
 
>  <oscillator_strength_3> 
0.0234 
 
>  <oscillator_strength_4> 
0.5088 
 
>  <open_babel_can_smiles> 
NCCN1c2ccccc2C=Cc2c1cccc2 
 
>  <mulliken_charges> 
34 
1   -0.125691 
2   -0.126378 
3   -0.140925 
4   -0.141717 
5   -0.211282 
6   -0.211747 
7   -0.150454 
8   -0.153023 
9   -0.193344 
10   -0.194438 
11   -0.137773 
12   -0.132943 
13   0.176491 
14   0.177899 
15   0.211376 
16   0.210929 
17   -0.721218 
18   -0.587015 
19   0.127615 
20   0.12748 
21   0.129867 
22   0.129137 
23   0.128271 
24   0.128393 
25   0.133012 
26   0.131996 
27   0.129229 
28   0.128898 
29   0.124957 
30   0.148111 
31   0.134976 
32   0.157564 
33   0.292811 
34   0.298935 
 
>  <lowdin_charges> 
34 
1   -0.164141 
2   -0.165356 
3   -0.154772 
4   -0.155877 
5   -0.156374 
6   -0.156467 
7   -0.171215 
8   -0.174042 
9   -0.160646 
10   -0.161853 
11   -0.21964 
12   -0.19488 
13   -0.020078 
14   -0.019754 
15   0.052564 
16   0.051972 
17   -0.558953 
18   -0.133619 
19   0.157002 
20   0.157347 
21   0.159233 
22   0.158688 
23   0.156946 
24   0.156937 
25   0.161666 
26   0.160867 
27   0.158459 
28   0.158329 
29   0.125703 
30   0.147664 
31   0.143489 
32   0.154176 
33   0.250236 
34   0.256389 
 
$$$$ 
 
