PCCDB-ID:  40897 
public computational chemistry database (PCCDB) project, http://pccdb.org 
 
 19 19  0  0  0  0  0  0  0  0999 V2000 
    0.8660   -0.0473    0.2130 C   0  0  0  0  0  0  0  0  0  0  0  0 
    2.7406   -0.0821   -1.4733 C   0  0  0  0  0  0  0  0  0  0  0  0 
    3.0695   -1.1819    0.8815 C   0  0  0  0  0  0  0  0  0  0  0  0 
    3.1132    0.9942    0.8867 C   0  0  0  0  0  0  0  0  0  0  0  0 
    4.6984   -0.1299    2.5961 C   0  0  0  0  0  0  0  0  0  0  0  0 
    3.3855   -0.1023    1.9638 C   0  0  0  0  0  0  0  0  0  0  0  0 
    2.3858   -0.0776    0.0120 C   0  0  0  0  0  0  0  0  0  0  0  0 
    5.7566   -0.1519    3.0758 N   0  0  0  0  0  0  0  0  0  0  0  0 
    0.3937   -0.9225   -0.2498 H   0  0  0  0  0  0  0  0  0  0  0  0 
    0.4302    0.8502   -0.2428 H   0  0  0  0  0  0  0  0  0  0  0  0 
    0.5931   -0.0459    1.2753 H   0  0  0  0  0  0  0  0  0  0  0  0 
    2.3215   -0.9635   -1.9748 H   0  0  0  0  0  0  0  0  0  0  0  0 
    3.8263   -0.0940   -1.6257 H   0  0  0  0  0  0  0  0  0  0  0  0 
    2.3407    0.8074   -1.9764 H   0  0  0  0  0  0  0  0  0  0  0  0 
    2.4536   -2.0269    1.2045 H   0  0  0  0  0  0  0  0  0  0  0  0 
    3.9846   -1.5644    0.4201 H   0  0  0  0  0  0  0  0  0  0  0  0 
    4.0435    1.3407    0.4269 H   0  0  0  0  0  0  0  0  0  0  0  0 
    2.5328    1.8627    1.2130 H   0  0  0  0  0  0  0  0  0  0  0  0 
    2.6196   -0.0891    2.7460 H   0  0  0  0  0  0  0  0  0  0  0  0 
  1 11  1  0  0  0  0 
  2  7  1  0  0  0  0 
  3 15  1  0  0  0  0 
  3  6  1  0  0  0  0 
  4 18  1  0  0  0  0 
  4  6  1  0  0  0  0 
  5  8  3  0  0  0  0 
  6  5  1  0  0  0  0 
  6 19  1  0  0  0  0 
  7  1  1  0  0  0  0 
  7  3  1  0  0  0  0 
  7  4  1  0  0  0  0 
  9  1  1  0  0  0  0 
 10  1  1  0  0  0  0 
 12  2  1  0  0  0  0 
 13  2  1  0  0  0  0 
 14  2  1  0  0  0  0 
 16  3  1  0  0  0  0 
 17  4  1  0  0  0  0 
M  END 
>  <HBA> 
1 
 
>  <HBD> 
0 
 
>  <TPSA> 
23.79 
 
>  <cid> 
40897 
 
>  <dipole> 
4.37 
 
>  <excitation_energy_1> 
7.237 
 
>  <excitation_energy_2> 
7.315 
 
>  <excitation_energy_3> 
7.421 
 
>  <excitation_energy_4> 
7.634 
 
>  <homo_energy> 
-8.188 
 
>  <homo_lumo_gap> 
9.056 
 
>  <logP> 
1.946 
 
>  <lumo_energy> 
0.868 
 
>  <melting_point> 
47.94 
 
>  <molecular_refractivity> 
33.14 
 
>  <oscillator_strength_1> 
0.0005 
 
>  <oscillator_strength_2> 
0.0109 
 
>  <oscillator_strength_3> 
0.0245 
 
>  <oscillator_strength_4> 
0.0565 
 
>  <open_babel_can_smiles> 
N#CC1CC(C1)(C)C 
 
>  <mulliken_charges> 
19 
1   -0.462788 
2   -0.461825 
3   -0.281142 
4   -0.28097 
5   0.336797 
6   -0.180745 
7   0.11572 
8   -0.475776 
9   0.148923 
10   0.148915 
11   0.143471 
12   0.147225 
13   0.145519 
14   0.14717 
15   0.153442 
16   0.159636 
17   0.159542 
18   0.153422 
19   0.183465 
 
>  <lowdin_charges> 
19 
1   -0.441656 
2   -0.443795 
3   -0.274308 
4   -0.27399 
5   -0.021059 
6   -0.134508 
7   0.015094 
8   -0.135291 
9   0.152916 
10   0.152734 
11   0.146647 
12   0.152821 
13   0.148378 
14   0.152716 
15   0.153213 
16   0.160366 
17   0.160137 
18   0.15308 
19   0.176507 
 
$$$$ 
 
