PCCDB-ID:  49756 
public computational chemistry database (PCCDB) project, http://pccdb.org 
 
 37 38  0  0  0  0  0  0  0  0999 V2000 
    1.2835    2.0747    2.7267 C   0  0  0  0  0  0  0  0  0  0  0  0 
    2.7114   -3.8651    2.1933 C   0  0  0  0  0  0  0  0  0  0  0  0 
    2.6062   -3.4047    4.5414 C   0  0  0  0  0  0  0  0  0  0  0  0 
    8.6937    0.3495   -1.0429 C   0  0  0  0  0  0  0  0  0  0  0  0 
    6.7473    2.0494    0.1116 C   0  0  0  0  0  0  0  0  0  0  0  0 
    5.7687    2.8540    0.6954 C   0  0  0  0  0  0  0  0  0  0  0  0 
    2.4974   -0.8112    1.7878 C   0  0  0  0  0  0  0  0  0  0  0  0 
    3.0270   -1.5932    3.0062 C   0  0  0  0  0  0  0  0  0  0  0  0 
    5.4048    0.0468    0.4941 C   0  0  0  0  0  0  0  0  0  0  0  0 
    2.5881    1.7570    2.0685 C   0  0  0  0  0  0  0  0  0  0  0  0 
    6.5650    0.6534    0.0132 C   0  0  0  0  0  0  0  0  0  0  0  0 
    3.1161    0.5523    1.6534 C   0  0  0  0  0  0  0  0  0  0  0  0 
    4.4105    0.8406    1.0810 C   0  0  0  0  0  0  0  0  0  0  0  0 
    4.6115    2.2449    1.1741 C   0  0  0  0  0  0  0  0  0  0  0  0 
    3.4901    2.7735    1.7868 N   0  0  0  0  0  0  0  0  0  0  0  0 
    2.3555   -2.8790    3.2059 N   0  0  0  0  0  0  0  0  0  0  0  0 
    7.4880   -0.1984   -0.5476 O   0  0  0  0  0  0  0  0  0  0  0  0 
    0.6685    1.1762    2.8187 H   0  0  0  0  0  0  0  0  0  0  0  0 
    0.7090    2.8138    2.1520 H   0  0  0  0  0  0  0  0  0  0  0  0 
    1.4251    2.4836    3.7364 H   0  0  0  0  0  0  0  0  0  0  0  0 
    2.1518   -4.7899    2.3724 H   0  0  0  0  0  0  0  0  0  0  0  0 
    3.7920   -4.1146    2.1914 H   0  0  0  0  0  0  0  0  0  0  0  0 
    2.4453   -3.5059    1.1953 H   0  0  0  0  0  0  0  0  0  0  0  0 
    2.0410   -4.3329    4.6837 H   0  0  0  0  0  0  0  0  0  0  0  0 
    2.2686   -2.6836    5.2939 H   0  0  0  0  0  0  0  0  0  0  0  0 
    3.6753   -3.6257    4.7348 H   0  0  0  0  0  0  0  0  0  0  0  0 
    9.2706   -0.4932   -1.4303 H   0  0  0  0  0  0  0  0  0  0  0  0 
    9.2727    0.8477   -0.2524 H   0  0  0  0  0  0  0  0  0  0  0  0 
    8.5149    1.0660   -1.8572 H   0  0  0  0  0  0  0  0  0  0  0  0 
    7.6515    2.5140   -0.2634 H   0  0  0  0  0  0  0  0  0  0  0  0 
    5.9168    3.9285    0.7685 H   0  0  0  0  0  0  0  0  0  0  0  0 
    1.4074   -0.7398    1.8820 H   0  0  0  0  0  0  0  0  0  0  0  0 
    2.6878   -1.3786    0.8680 H   0  0  0  0  0  0  0  0  0  0  0  0 
    2.8483   -0.9849    3.9008 H   0  0  0  0  0  0  0  0  0  0  0  0 
    4.1262   -1.7110    2.9231 H   0  0  0  0  0  0  0  0  0  0  0  0 
    5.3016   -1.0302    0.4028 H   0  0  0  0  0  0  0  0  0  0  0  0 
    3.3201    3.7536    1.9495 H   0  0  0  0  0  0  0  0  0  0  0  0 
  1 18  1  0  0  0  0 
  1 20  1  0  0  0  0 
  2 21  1  0  0  0  0 
  2 16  1  0  0  0  0 
  3 24  1  0  0  0  0 
  3 26  1  0  0  0  0 
  3 25  1  0  0  0  0 
  4 17  1  0  0  0  0 
  4 28  1  0  0  0  0 
  5  6  1  0  0  0  0 
  6 31  1  0  0  0  0 
  6 14  2  0  0  0  0 
  7 32  1  0  0  0  0 
  7  8  1  0  0  0  0 
  8 16  1  0  0  0  0 
  8 34  1  0  0  0  0 
  9 13  2  0  0  0  0 
 10  1  1  0  0  0  0 
 11  5  2  0  0  0  0 
 11  9  1  0  0  0  0 
 12  7  1  0  0  0  0 
 12 10  2  0  0  0  0 
 13 14  1  0  0  0  0 
 13 12  1  0  0  0  0 
 14 15  1  0  0  0  0 
 15 37  1  0  0  0  0 
 15 10  1  0  0  0  0 
 16  3  1  0  0  0  0 
 17 11  1  0  0  0  0 
 19  1  1  0  0  0  0 
 22  2  1  0  0  0  0 
 23  2  1  0  0  0  0 
 27  4  1  0  0  0  0 
 29  4  1  0  0  0  0 
 30  5  1  0  0  0  0 
 33  7  1  0  0  0  0 
 35  8  1  0  0  0  0 
 36  9  1  0  0  0  0 
M  END 
>  <HBA> 
2 
 
>  <HBD> 
1 
 
>  <TPSA> 
28.26 
 
>  <cid> 
49756 
 
>  <dipole> 
2.47 
 
>  <excitation_energy_1> 
4.301 
 
>  <excitation_energy_2> 
4.419 
 
>  <excitation_energy_3> 
4.594 
 
>  <excitation_energy_4> 
4.724 
 
>  <homo_energy> 
-4.955 
 
>  <homo_lumo_gap> 
4.928 
 
>  <logP> 
2.589 
 
>  <lumo_energy> 
-0.027 
 
>  <melting_point> 
111.36 
 
>  <molecular_refractivity> 
72.04 
 
>  <oscillator_strength_1> 
0.0638 
 
>  <oscillator_strength_2> 
0.0004 
 
>  <oscillator_strength_3> 
0.1039 
 
>  <oscillator_strength_4> 
0.0007 
 
>  <open_babel_can_smiles> 
COc1ccc2c(c1)c(CCN(C)C)c([nH]2)C 
 
>  <mulliken_charges> 
37 
1   -0.538677 
2   -0.30133 
3   -0.29216 
4   -0.207922 
5   -0.21828 
6   -0.179883 
7   -0.358868 
8   -0.106086 
9   -0.277 
10   0.302057 
11   0.376006 
12   0.018709 
13   0.090111 
14   0.327885 
15   -0.75027 
16   -0.367865 
17   -0.517566 
18   0.176736 
19   0.158961 
20   0.163077 
21   0.145628 
22   0.116853 
23   0.153686 
24   0.144388 
25   0.145511 
26   0.116708 
27   0.162888 
28   0.144709 
29   0.144639 
30   0.122708 
31   0.11866 
32   0.144673 
33   0.145704 
34   0.132059 
35   0.119202 
36   0.127611 
37   0.316737 
 
>  <lowdin_charges> 
37 
1   -0.447863 
2   -0.356897 
3   -0.355017 
4   -0.280681 
5   -0.219012 
6   -0.179664 
7   -0.272949 
8   -0.196978 
9   -0.19586 
10   0.023932 
11   0.088136 
12   -0.078776 
13   -0.023203 
14   0.019245 
15   -0.211212 
16   -0.186745 
17   -0.210286 
18   0.17145 
19   0.159924 
20   0.159798 
21   0.149072 
22   0.117825 
23   0.149949 
24   0.147572 
25   0.148716 
26   0.117983 
27   0.160044 
28   0.141828 
29   0.140724 
30   0.160044 
31   0.152213 
32   0.148919 
33   0.14957 
34   0.143397 
35   0.118806 
36   0.161032 
37   0.284961 
 
$$$$ 
 
