PCCDB-ID:  16634 
public computational chemistry database (PCCDB) project, http://pccdb.org 
 
 21 20  0  0  0  0  0  0  0  0999 V2000 
    0.8797   -1.0559    0.7892 C   0  0  0  0  0  0  0  0  0  0  0  0 
    4.2207    3.9697    2.9195 C   0  0  0  0  0  0  0  0  0  0  0  0 
    2.1517   -0.3075    1.1972 C   0  0  0  0  0  0  0  0  0  0  0  0 
    4.7853    3.0180    1.8804 C   0  0  0  0  0  0  0  0  0  0  0  0 
    2.7301    0.5393    0.0481 C   0  0  0  0  0  0  0  0  0  0  0  0 
    3.9813    1.2963    0.4422 C   0  0  0  0  0  0  0  0  0  0  0  0 
    5.1747    1.1429    0.0201 N   0  0  0  0  0  0  0  0  0  0  0  0 
    3.6903    2.2261    1.3828 O   0  0  0  0  0  0  0  0  0  0  0  0 
    0.4905   -1.6553    1.6198 H   0  0  0  0  0  0  0  0  0  0  0  0 
    1.0665   -1.7351   -0.0518 H   0  0  0  0  0  0  0  0  0  0  0  0 
    0.0905   -0.3583    0.4827 H   0  0  0  0  0  0  0  0  0  0  0  0 
    5.0228    4.5926    3.3305 H   0  0  0  0  0  0  0  0  0  0  0  0 
    3.7566    3.4182    3.7440 H   0  0  0  0  0  0  0  0  0  0  0  0 
    3.4648    4.6286    2.4795 H   0  0  0  0  0  0  0  0  0  0  0  0 
    2.9128   -1.0248    1.5325 H   0  0  0  0  0  0  0  0  0  0  0  0 
    1.9450    0.3505    2.0486 H   0  0  0  0  0  0  0  0  0  0  0  0 
    5.5457    2.3511    2.3009 H   0  0  0  0  0  0  0  0  0  0  0  0 
    5.2491    3.5494    1.0422 H   0  0  0  0  0  0  0  0  0  0  0  0 
    1.9738    1.2650   -0.2795 H   0  0  0  0  0  0  0  0  0  0  0  0 
    2.9615   -0.1004   -0.8118 H   0  0  0  0  0  0  0  0  0  0  0  0 
    5.2044    0.4023   -0.6818 H   0  0  0  0  0  0  0  0  0  0  0  0 
  1  3  1  0  0  0  0 
  1  9  1  0  0  0  0 
  2 12  1  0  0  0  0 
  2 13  1  0  0  0  0 
  3 15  1  0  0  0  0 
  3 16  1  0  0  0  0 
  4 17  1  0  0  0  0 
  4  2  1  0  0  0  0 
  5  6  1  0  0  0  0 
  5  3  1  0  0  0  0 
  6  8  1  0  0  0  0 
  7  6  2  0  0  0  0 
  8  4  1  0  0  0  0 
 10  1  1  0  0  0  0 
 11  1  1  0  0  0  0 
 14  2  1  0  0  0  0 
 18  4  1  0  0  0  0 
 19  5  1  0  0  0  0 
 20  5  1  0  0  0  0 
 21  7  1  0  0  0  0 
M  END 
>  <HBA> 
2 
 
>  <HBD> 
1 
 
>  <TPSA> 
33.08 
 
>  <cid> 
16634 
 
>  <dipole> 
1.27 
 
>  <excitation_energy_1> 
6.356 
 
>  <excitation_energy_2> 
6.657 
 
>  <excitation_energy_3> 
6.75 
 
>  <excitation_energy_4> 
7.096 
 
>  <homo_energy> 
-6.953 
 
>  <homo_lumo_gap> 
7.891 
 
>  <logP> 
1.9 
 
>  <lumo_energy> 
0.939 
 
>  <melting_point> 
-4.21 
 
>  <molecular_refractivity> 
35.63 
 
>  <oscillator_strength_1> 
0.0008 
 
>  <oscillator_strength_2> 
0.021 
 
>  <oscillator_strength_3> 
0.0316 
 
>  <oscillator_strength_4> 
0.0027 
 
>  <open_babel_can_smiles> 
CCCC(=N)OCC 
 
>  <mulliken_charges> 
21 
1   -0.443663 
2   -0.459086 
3   -0.254414 
4   -0.015537 
5   -0.31769 
6   0.509319 
7   -0.634102 
8   -0.470538 
9   0.147926 
10   0.142798 
11   0.145285 
12   0.148278 
13   0.15626 
14   0.156912 
15   0.140427 
16   0.158167 
17   0.15521 
18   0.155201 
19   0.158409 
20   0.137181 
21   0.283655 
 
>  <lowdin_charges> 
21 
1   -0.446781 
2   -0.452829 
3   -0.271398 
4   -0.123833 
5   -0.29342 
6   0.129792 
7   -0.429969 
8   -0.203636 
9   0.153847 
10   0.147323 
11   0.149139 
12   0.157743 
13   0.156703 
14   0.157215 
15   0.145348 
16   0.153468 
17   0.151425 
18   0.151323 
19   0.161727 
20   0.149175 
21   0.257639 
 
$$$$ 
 
