PCCDB-ID:  15394 
public computational chemistry database (PCCDB) project, http://pccdb.org 
 
 14 13  0  0  0  0  0  0  0  0999 V2000 
    4.9535    0.2718   -1.6099 C   0  0  0  0  0  0  0  0  0  0  0  0 
    0.6977   -0.1321   -3.1392 C   0  0  0  0  0  0  0  0  0  0  0  0 
    3.8789    0.0792   -0.8375 C   0  0  0  0  0  0  0  0  0  0  0  0 
    2.1839    0.0064   -2.8134 C   0  0  0  0  0  0  0  0  0  0  0  0 
    2.4747   -0.0632   -1.3171 C   0  0  0  0  0  0  0  0  0  0  0  0 
    1.5814   -0.2368   -0.5010 O   0  0  0  0  0  0  0  0  0  0  0  0 
    5.9479    0.3644   -1.1818 H   0  0  0  0  0  0  0  0  0  0  0  0 
    4.8883    0.3462   -2.6920 H   0  0  0  0  0  0  0  0  0  0  0  0 
    0.5359   -0.0793   -4.2209 H   0  0  0  0  0  0  0  0  0  0  0  0 
    0.1162    0.6625   -2.6626 H   0  0  0  0  0  0  0  0  0  0  0  0 
    0.3040   -1.0856   -2.7755 H   0  0  0  0  0  0  0  0  0  0  0  0 
    3.9746    0.0083    0.2441 H   0  0  0  0  0  0  0  0  0  0  0  0 
    2.5814    0.9551   -3.2005 H   0  0  0  0  0  0  0  0  0  0  0  0 
    2.7664   -0.7808   -3.3130 H   0  0  0  0  0  0  0  0  0  0  0  0 
  1  7  1  0  0  0  0 
  1  3  2  0  0  0  0 
  2  4  1  0  0  0  0 
  2 11  1  0  0  0  0 
  2 10  1  0  0  0  0 
  3 12  1  0  0  0  0 
  4  5  1  0  0  0  0 
  5  3  1  0  0  0  0 
  5  6  2  0  0  0  0 
  8  1  1  0  0  0  0 
  9  2  1  0  0  0  0 
 13  4  1  0  0  0  0 
 14  4  1  0  0  0  0 
M  END 
>  <HBA> 
1 
 
>  <HBD> 
0 
 
>  <TPSA> 
17.07 
 
>  <cid> 
15394 
 
>  <dipole> 
2.98 
 
>  <excitation_energy_1> 
3.622 
 
>  <excitation_energy_2> 
6.02 
 
>  <excitation_energy_3> 
6.412 
 
>  <excitation_energy_4> 
6.724 
 
>  <homo_energy> 
-6.729 
 
>  <homo_lumo_gap> 
5.208 
 
>  <logP> 
1.151 
 
>  <lumo_energy> 
-1.521 
 
>  <melting_point> 
-25.11 
 
>  <molecular_refractivity> 
25.88 
 
>  <oscillator_strength_1> 
0.0001 
 
>  <oscillator_strength_2> 
0.2779 
 
>  <oscillator_strength_3> 
0.0293 
 
>  <oscillator_strength_4> 
0.0003 
 
>  <open_babel_can_smiles> 
CCC(=O)C=C 
 
>  <mulliken_charges> 
14 
1   -0.32772 
2   -0.432659 
3   -0.115279 
4   -0.364116 
5   0.444099 
6   -0.458299 
7   0.161672 
8   0.157113 
9   0.138437 
10   0.161341 
11   0.162373 
12   0.151975 
13   0.159922 
14   0.161142 
 
>  <lowdin_charges> 
14 
1   -0.288639 
2   -0.437887 
3   -0.175289 
4   -0.311374 
5   0.158028 
6   -0.236486 
7   0.169761 
8   0.163004 
9   0.147707 
10   0.160154 
11   0.159611 
12   0.168047 
13   0.160763 
14   0.1626 
 
$$$$ 
 
