PCCDB-ID:  27136 
public computational chemistry database (PCCDB) project, http://pccdb.org 
 
 22 21  0  0  1  0  0  0  0  0999 V2000 
   -2.6473   -0.2279    1.4476 C   0  0  0  0  0  0  0  0  0  0  0  0 
   -1.9684   -1.1122    0.4045 C   0  0  0  0  0  0  0  0  0  0  0  0 
   -2.0402   -1.5296   -1.9753 C   0  0  0  0  0  0  0  0  0  0  0  0 
   -3.1127   -2.4956   -2.4959 C   0  0  1  0  0  0  0  0  0  0  0  0 
   -3.2734   -3.7178   -1.5593 C   0  0  0  0  0  0  0  0  0  0  0  0 
   -2.5055    1.2151    1.2472 N   0  0  0  0  0  0  0  0  0  0  0  0 
   -4.4333   -1.8737   -2.6860 N   0  0  0  0  0  0  0  0  0  0  0  0 
   -2.3380   -4.2520   -1.0068 O   0  0  0  0  0  0  0  0  0  0  0  0 
   -4.5366   -4.1430   -1.4505 O   0  0  0  0  0  0  0  0  0  0  0  0 
   -2.5473   -0.7958   -0.8676 O   0  0  0  0  0  0  0  0  0  0  0  0 
   -2.2520   -0.4876    2.4373 H   0  0  0  0  0  0  0  0  0  0  0  0 
   -3.7185   -0.4653    1.4635 H   0  0  0  0  0  0  0  0  0  0  0  0 
   -2.1040   -2.1768    0.6366 H   0  0  0  0  0  0  0  0  0  0  0  0 
   -0.8860   -0.9057    0.3750 H   0  0  0  0  0  0  0  0  0  0  0  0 
   -1.7850   -0.8092   -2.7641 H   0  0  0  0  0  0  0  0  0  0  0  0 
   -1.1399   -2.0926   -1.7085 H   0  0  0  0  0  0  0  0  0  0  0  0 
   -2.7782   -2.9035   -3.4593 H   0  0  0  0  0  0  0  0  0  0  0  0 
   -1.5201    1.4717    1.3086 H   0  0  0  0  0  0  0  0  0  0  0  0 
   -2.7891    1.4346    0.2931 H   0  0  0  0  0  0  0  0  0  0  0  0 
   -4.5481   -1.1540   -1.9713 H   0  0  0  0  0  0  0  0  0  0  0  0 
   -4.5067   -1.4205   -3.5935 H   0  0  0  0  0  0  0  0  0  0  0  0 
   -5.0654   -3.4847   -1.9730 H   0  0  0  0  0  0  0  0  0  0  0  0 
  1 12  1  0  0  0  0 
  1 11  1  0  0  0  0 
  2 13  1  0  0  0  0 
  2  1  1  0  0  0  0 
  3 16  1  0  0  0  0 
  3 10  1  0  0  0  0 
  4 17  1  6  0  0  0 
  4  3  1  0  0  0  0 
  4  5  1  0  0  0  0 
  5  9  1  0  0  0  0 
  5  8  2  0  0  0  0 
  6 18  1  0  0  0  0 
  6  1  1  0  0  0  0 
  7  4  1  0  0  0  0 
  7 20  1  0  0  0  0 
 10  2  1  0  0  0  0 
 14  2  1  0  0  0  0 
 15  3  1  0  0  0  0 
 19  6  1  0  0  0  0 
 21  7  1  0  0  0  0 
 22  9  1  0  0  0  0 
M  END 
>  <HBA> 
5 
 
>  <HBD> 
3 
 
>  <TPSA> 
98.57 
 
>  <cid> 
27136 
 
>  <dipole> 
4.42 
 
>  <excitation_energy_1> 
5.443 
 
>  <excitation_energy_2> 
5.536 
 
>  <excitation_energy_3> 
5.886 
 
>  <excitation_energy_4> 
6.072 
 
>  <homo_energy> 
-6.392 
 
>  <homo_lumo_gap> 
6.667 
 
>  <logP> 
-0.226 
 
>  <lumo_energy> 
0.275 
 
>  <melting_point> 
150.81 
 
>  <molecular_refractivity> 
34.42 
 
>  <oscillator_strength_1> 
0.0023 
 
>  <oscillator_strength_2> 
0.0139 
 
>  <oscillator_strength_3> 
0.0219 
 
>  <oscillator_strength_4> 
0.0192 
 
>  <open_babel_can_smiles> 
N[C@H](C(=O)O)COCCN 
 
>  <mulliken_charges> 
22 
1   -0.16312 
2   -0.040783 
3   -0.031407 
4   -0.098744 
5   0.619422 
6   -0.702769 
7   -0.773056 
8   -0.47627 
9   -0.576948 
10   -0.499898 
11   0.148062 
12   0.151547 
13   0.159688 
14   0.119629 
15   0.1347 
16   0.169423 
17   0.173144 
18   0.289521 
19   0.302604 
20   0.337883 
21   0.322022 
22   0.43535 
 
>  <lowdin_charges> 
22 
1   -0.214257 
2   -0.145405 
3   -0.141883 
4   -0.12517 
5   0.17822 
6   -0.547733 
7   -0.546994 
8   -0.266241 
9   -0.350979 
10   -0.294842 
11   0.150983 
12   0.147122 
13   0.148361 
14   0.125144 
15   0.141543 
16   0.161497 
17   0.168963 
18   0.248809 
19   0.254252 
20   0.274312 
21   0.27144 
22   0.362857 
 
$$$$ 
 
