PCCDB-ID:  7095 
public computational chemistry database (PCCDB) project, http://pccdb.org 
 
 22 23  0  0  0  0  0  0  0  0999 V2000 
   -1.4677   -0.0432    0.0500 C   0  0  0  0  0  0  0  0  0  0  0  0 
    5.6431    0.2067   -0.3694 C   0  0  0  0  0  0  0  0  0  0  0  0 
   -0.8142    1.1821   -0.0921 C   0  0  0  0  0  0  0  0  0  0  0  0 
   -0.7168   -1.2186    0.1096 C   0  0  0  0  0  0  0  0  0  0  0  0 
    4.9368   -0.8250   -0.9905 C   0  0  0  0  0  0  0  0  0  0  0  0 
    4.9451    1.1897    0.3344 C   0  0  0  0  0  0  0  0  0  0  0  0 
    0.5767    1.2311   -0.1747 C   0  0  0  0  0  0  0  0  0  0  0  0 
    0.6741   -1.1685    0.0286 C   0  0  0  0  0  0  0  0  0  0  0  0 
    3.5459   -0.8722   -0.9091 C   0  0  0  0  0  0  0  0  0  0  0  0 
    3.5542    1.1407    0.4167 C   0  0  0  0  0  0  0  0  0  0  0  0 
    1.3465    0.0570   -0.1157 C   0  0  0  0  0  0  0  0  0  0  0  0 
    2.8290    0.1092   -0.2036 C   0  0  0  0  0  0  0  0  0  0  0  0 
   -2.5518   -0.0819    0.1134 H   0  0  0  0  0  0  0  0  0  0  0  0 
    6.7273    0.2440   -0.4329 H   0  0  0  0  0  0  0  0  0  0  0  0 
   -1.3886    2.1033   -0.1468 H   0  0  0  0  0  0  0  0  0  0  0  0 
   -1.2141   -2.1779    0.2278 H   0  0  0  0  0  0  0  0  0  0  0  0 
    5.4691   -1.5918   -1.5475 H   0  0  0  0  0  0  0  0  0  0  0  0 
    5.4848    1.9937    0.8281 H   0  0  0  0  0  0  0  0  0  0  0  0 
    1.0732    2.1876   -0.3130 H   0  0  0  0  0  0  0  0  0  0  0  0 
    1.2500   -2.0867    0.1040 H   0  0  0  0  0  0  0  0  0  0  0  0 
    3.0043   -1.6638   -1.4195 H   0  0  0  0  0  0  0  0  0  0  0  0 
    3.0230    1.8951    0.9903 H   0  0  0  0  0  0  0  0  0  0  0  0 
  1  4  1  0  0  0  0 
  1 13  1  0  0  0  0 
  2  6  2  0  0  0  0 
  3  1  2  0  0  0  0 
  4 16  1  0  0  0  0 
  5  9  2  0  0  0  0 
  5  2  1  0  0  0  0 
  6 10  1  0  0  0  0 
  6 18  1  0  0  0  0 
  7 11  2  0  0  0  0 
  7  3  1  0  0  0  0 
  8 20  1  0  0  0  0 
  8  4  2  0  0  0  0 
  9 12  1  0  0  0  0 
 10 22  1  0  0  0  0 
 11  8  1  0  0  0  0 
 12 11  1  0  0  0  0 
 12 10  2  0  0  0  0 
 14  2  1  0  0  0  0 
 15  3  1  0  0  0  0 
 17  5  1  0  0  0  0 
 19  7  1  0  0  0  0 
 21  9  1  0  0  0  0 
M  END 
>  <HBA> 
0 
 
>  <HBD> 
0 
 
>  <TPSA> 
0.0 
 
>  <cid> 
7095 
 
>  <dipole> 
0.0 
 
>  <excitation_energy_1> 
4.871 
 
>  <excitation_energy_2> 
4.902 
 
>  <excitation_energy_3> 
4.971 
 
>  <excitation_energy_4> 
5.599 
 
>  <homo_energy> 
-6.046 
 
>  <homo_lumo_gap> 
5.372 
 
>  <logP> 
3.354 
 
>  <lumo_energy> 
-0.675 
 
>  <melting_point> 
40.59 
 
>  <molecular_refractivity> 
51.88 
 
>  <oscillator_strength_1> 
0.4499 
 
>  <oscillator_strength_2> 
0.0 
 
>  <oscillator_strength_3> 
0.0001 
 
>  <oscillator_strength_4> 
0.0147 
 
>  <open_babel_can_smiles> 
c1ccc(cc1)c1ccccc1 
 
>  <mulliken_charges> 
22 
1   -0.126921 
2   -0.126743 
3   -0.133586 
4   -0.133454 
5   -0.133649 
6   -0.133545 
7   -0.173776 
8   -0.173816 
9   -0.173897 
10   -0.173894 
11   0.088319 
12   0.088305 
13   0.129196 
14   0.129148 
15   0.130005 
16   0.129969 
17   0.130025 
18   0.130005 
19   0.132044 
20   0.132078 
21   0.132121 
22   0.132067 
 
>  <lowdin_charges> 
22 
1   -0.1554 
2   -0.155975 
3   -0.155395 
4   -0.154893 
5   -0.155877 
6   -0.155751 
7   -0.161909 
8   -0.162409 
9   -0.162825 
10   -0.162922 
11   -0.000486 
12   -0.001152 
13   0.15571 
14   0.155714 
15   0.158218 
16   0.157842 
17   0.159077 
18   0.158933 
19   0.15919 
20   0.159574 
21   0.160319 
22   0.160419 
 
$$$$ 
 
