PCCDB-ID:  40606 
public computational chemistry database (PCCDB) project, http://pccdb.org 
 
 26 27  0  0  0  0  0  0  0  0999 V2000 
   -0.1797    1.0758   -0.6648 C   0  0  0  0  0  0  0  0  0  0  0  0 
   -0.7507   -0.1661   -0.9386 C   0  0  0  0  0  0  0  0  0  0  0  0 
    0.4415    1.3259    0.5553 C   0  0  0  0  0  0  0  0  0  0  0  0 
   -2.4926   -2.6336   -0.9721 C   0  0  0  0  0  0  0  0  0  0  0  0 
   -0.6738   -3.6956    0.2100 C   0  0  0  0  0  0  0  0  0  0  0  0 
   -3.0580   -3.8756   -1.2360 C   0  0  0  0  0  0  0  0  0  0  0  0 
   -1.2266   -4.9455   -0.0427 C   0  0  0  0  0  0  0  0  0  0  0  0 
   -0.0689   -0.9301    1.2545 C   0  0  0  0  0  0  0  0  0  0  0  0 
   -1.2924   -2.5162   -0.2460 C   0  0  0  0  0  0  0  0  0  0  0  0 
   -0.6973   -1.1847    0.0276 C   0  0  0  0  0  0  0  0  0  0  0  0 
    0.5026    0.3204    1.5359 C   0  0  0  0  0  0  0  0  0  0  0  0 
   -2.4161   -5.0201   -0.7655 C   0  0  0  0  0  0  0  0  0  0  0  0 
    1.0587    0.5807    2.7891 N   0  0  0  0  0  0  0  0  0  0  0  0 
   -3.0065   -6.3359   -1.0381 N   0  0  0  0  0  0  0  0  0  0  0  0 
   -4.0511   -6.3720   -1.6899 O   0  0  0  0  0  0  0  0  0  0  0  0 
   -2.4231   -7.3283   -0.5994 O   0  0  0  0  0  0  0  0  0  0  0  0 
   -0.2111    1.8603   -1.4162 H   0  0  0  0  0  0  0  0  0  0  0  0 
   -1.2024   -0.3572   -1.9066 H   0  0  0  0  0  0  0  0  0  0  0  0 
    0.8745    2.3026    0.7594 H   0  0  0  0  0  0  0  0  0  0  0  0 
   -3.0004   -1.7365   -1.3115 H   0  0  0  0  0  0  0  0  0  0  0  0 
    0.2670   -3.6315    0.7474 H   0  0  0  0  0  0  0  0  0  0  0  0 
   -3.9852   -3.9721   -1.7875 H   0  0  0  0  0  0  0  0  0  0  0  0 
   -0.7514   -5.8569    0.2987 H   0  0  0  0  0  0  0  0  0  0  0  0 
   -0.0582   -1.6995    2.0227 H   0  0  0  0  0  0  0  0  0  0  0  0 
    1.7364    1.3323    2.8122 H   0  0  0  0  0  0  0  0  0  0  0  0 
    1.3856   -0.2327    3.2953 H   0  0  0  0  0  0  0  0  0  0  0  0 
  1  3  1  0  0  0  0 
  2  1  2  0  0  0  0 
  2 10  1  0  0  0  0 
  3 19  1  0  0  0  0 
  3 11  2  0  0  0  0 
  4  9  1  0  0  0  0 
  5 21  1  0  0  0  0 
  6  4  2  0  0  0  0 
  6 12  1  0  0  0  0 
  7  5  1  0  0  0  0 
  7 23  1  0  0  0  0 
  8 11  1  0  0  0  0 
  8 24  1  0  0  0  0 
  9 10  1  0  0  0  0 
  9  5  2  0  0  0  0 
 10  8  2  0  0  0  0 
 11 13  1  0  0  0  0 
 12  7  2  0  0  0  0 
 13 25  1  0  0  0  0 
 13 26  1  0  0  0  0 
 14 12  1  0  0  0  0 
 14 16  2  0  0  0  0 
 15 14  2  0  0  0  0 
 17  1  1  0  0  0  0 
 18  2  1  0  0  0  0 
 20  4  1  0  0  0  0 
 22  6  1  0  0  0  0 
M  END 
>  <HBA> 
1 
 
>  <HBD> 
1 
 
>  <TPSA> 
71.84 
 
>  <cid> 
40606 
 
>  <dipole> 
6.64 
 
>  <excitation_energy_1> 
2.914 
 
>  <excitation_energy_2> 
3.702 
 
>  <excitation_energy_3> 
3.772 
 
>  <excitation_energy_4> 
4.216 
 
>  <homo_energy> 
-5.821 
 
>  <homo_lumo_gap> 
3.464 
 
>  <logP> 
3.948 
 
>  <lumo_energy> 
-2.357 
 
>  <melting_point> 
130.54 
 
>  <molecular_refractivity> 
65.1 
 
>  <oscillator_strength_1> 
0.0413 
 
>  <oscillator_strength_2> 
0.0947 
 
>  <oscillator_strength_3> 
0.2381 
 
>  <oscillator_strength_4> 
0.0115 
 
>  <open_babel_can_smiles> 
Nc1cccc(c1)c1ccc(cc1)N(=O)=O 
 
>  <mulliken_charges> 
26 
1   -0.137818 
2   -0.183729 
3   -0.168451 
4   -0.185992 
5   -0.183876 
6   -0.154772 
7   -0.155394 
8   -0.227324 
9   0.105289 
10   0.088116 
11   0.318361 
12   0.278914 
13   -0.790086 
14   0.375841 
15   -0.398278 
16   -0.398993 
17   0.133893 
18   0.13065 
19   0.122884 
20   0.150978 
21   0.144888 
22   0.182189 
23   0.181236 
24   0.125149 
25   0.323464 
26   0.322864 
 
>  <lowdin_charges> 
26 
1   -0.141909 
2   -0.188205 
3   -0.194093 
4   -0.155304 
5   -0.155259 
6   -0.134898 
7   -0.137018 
8   -0.205231 
9   0.024123 
10   0.003824 
11   0.066243 
12   -0.002345 
13   -0.486669 
14   0.308545 
15   -0.250331 
16   -0.252126 
17   0.161379 
18   0.159426 
19   0.15553 
20   0.169941 
21   0.166221 
22   0.187082 
23   0.187357 
24   0.157183 
25   0.27834 
26   0.278192 
 
$$$$ 
 
