PCCDB-ID:  55348 
public computational chemistry database (PCCDB) project, http://pccdb.org 
 
 36 37  0  0  1  0  0  0  0  0999 V2000 
    5.8509    3.4675   -1.5233 C   0  0  0  0  0  0  0  0  0  0  0  0 
    4.5879    2.1063   -3.0394 C   0  0  0  0  0  0  0  0  0  0  0  0 
    8.9223    1.0524    0.6728 C   0  0  0  0  0  0  0  0  0  0  0  0 
    4.2661    4.9901    4.7084 C   0  0  0  0  0  0  0  0  0  0  0  0 
    4.7957    3.7656    5.1202 C   0  0  0  0  0  0  0  0  0  0  0  0 
    4.1426    5.2652    3.3456 C   0  0  0  0  0  0  0  0  0  0  0  0 
    5.1969    2.8243    4.1724 C   0  0  0  0  0  0  0  0  0  0  0  0 
    4.5470    4.3215    2.4003 C   0  0  0  0  0  0  0  0  0  0  0  0 
    4.8523    0.7044    1.7863 C   0  0  0  0  0  0  0  0  0  0  0  0 
    4.8987    1.3580   -0.7637 C   0  0  0  0  0  0  0  0  0  0  0  0 
    5.0774    3.0902    2.8024 C   0  0  0  0  0  0  0  0  0  0  0  0 
    4.5465    1.6678    0.6806 C   0  0  2  0  0  0  0  0  0  0  0  0 
    7.0030    2.1582    1.4792 C   0  0  0  0  0  0  0  0  0  0  0  0 
    5.5358    2.0620    1.7969 C   0  0  2  0  0  0  0  0  0  0  0  0 
    4.7537    2.5152   -1.6508 N   0  0  0  0  0  0  0  0  0  0  0  0 
    7.6580    3.1732    1.5921 O   0  0  0  0  0  0  0  0  0  0  0  0 
    7.5327    0.9907    1.0339 O   0  0  0  0  0  0  0  0  0  0  0  0 
    5.9537    3.8064   -0.4902 H   0  0  0  0  0  0  0  0  0  0  0  0 
    6.8267    3.0458   -1.8396 H   0  0  0  0  0  0  0  0  0  0  0  0 
    5.6466    4.3441   -2.1477 H   0  0  0  0  0  0  0  0  0  0  0  0 
    4.4191    2.9911   -3.6630 H   0  0  0  0  0  0  0  0  0  0  0  0 
    3.7145    1.4522   -3.1353 H   0  0  0  0  0  0  0  0  0  0  0  0 
    5.4668    1.5681   -3.4483 H   0  0  0  0  0  0  0  0  0  0  0  0 
    9.1823    0.0462    0.3422 H   0  0  0  0  0  0  0  0  0  0  0  0 
    9.5290    1.3445    1.5336 H   0  0  0  0  0  0  0  0  0  0  0  0 
    9.0786    1.7755   -0.1321 H   0  0  0  0  0  0  0  0  0  0  0  0 
    3.9497    5.7238    5.4450 H   0  0  0  0  0  0  0  0  0  0  0  0 
    4.8938    3.5419    6.1793 H   0  0  0  0  0  0  0  0  0  0  0  0 
    3.7314    6.2159    3.0166 H   0  0  0  0  0  0  0  0  0  0  0  0 
    5.6066    1.8703    4.4960 H   0  0  0  0  0  0  0  0  0  0  0  0 
    4.4461    4.5393    1.3406 H   0  0  0  0  0  0  0  0  0  0  0  0 
    5.4721   -0.1552    1.5537 H   0  0  0  0  0  0  0  0  0  0  0  0 
    4.0958    0.5331    2.5466 H   0  0  0  0  0  0  0  0  0  0  0  0 
    5.9007    0.8977   -0.8333 H   0  0  0  0  0  0  0  0  0  0  0  0 
    4.1836    0.5982   -1.1046 H   0  0  0  0  0  0  0  0  0  0  0  0 
    3.5998    2.1973    0.7660 H   0  0  0  0  0  0  0  0  0  0  0  0 
  1 18  1  0  0  0  0 
  2 15  1  0  0  0  0 
  3 17  1  0  0  0  0 
  3 25  1  0  0  0  0 
  4  5  1  0  0  0  0 
  4 27  1  0  0  0  0 
  5 28  1  0  0  0  0 
  6  4  2  0  0  0  0 
  7 30  1  0  0  0  0 
  7  5  2  0  0  0  0 
  8 11  2  0  0  0  0 
  8  6  1  0  0  0  0 
  9 14  1  0  0  0  0 
  9 33  1  0  0  0  0 
 10 12  1  0  0  0  0 
 11  7  1  0  0  0  0 
 12 36  1  1  0  0  0 
 12  9  1  0  0  0  0 
 12 14  1  0  0  0  0 
 13 16  2  0  0  0  0 
 14 13  1  6  0  0  0 
 14 11  1  0  0  0  0 
 15  1  1  0  0  0  0 
 15 10  1  0  0  0  0 
 17 13  1  0  0  0  0 
 19  1  1  0  0  0  0 
 20  1  1  0  0  0  0 
 21  2  1  0  0  0  0 
 22  2  1  0  0  0  0 
 23  2  1  0  0  0  0 
 24  3  1  0  0  0  0 
 26  3  1  0  0  0  0 
 29  6  1  0  0  0  0 
 31  8  1  0  0  0  0 
 32  9  1  0  0  0  0 
 34 10  1  0  0  0  0 
 35 10  1  0  0  0  0 
M  END 
>  <HBA> 
3 
 
>  <HBD> 
0 
 
>  <TPSA> 
29.54 
 
>  <cid> 
55348 
 
>  <dipole> 
2.05 
 
>  <excitation_energy_1> 
4.952 
 
>  <excitation_energy_2> 
5.114 
 
>  <excitation_energy_3> 
5.272 
 
>  <excitation_energy_4> 
5.287 
 
>  <homo_energy> 
-5.728 
 
>  <homo_lumo_gap> 
5.698 
 
>  <logP> 
1.679 
 
>  <lumo_energy> 
-0.03 
 
>  <melting_point> 
47.1 
 
>  <molecular_refractivity> 
67.01 
 
>  <oscillator_strength_1> 
0.0004 
 
>  <oscillator_strength_2> 
0.0009 
 
>  <oscillator_strength_3> 
0.0202 
 
>  <oscillator_strength_4> 
0.0004 
 
>  <open_babel_can_smiles> 
COC(=O)[C@@]1(C[C@@H]1CN(C)C)c1ccccc1 
 
>  <mulliken_charges> 
36 
1   -0.320326 
2   -0.293419 
3   -0.218283 
4   -0.125835 
5   -0.130848 
6   -0.131858 
7   -0.163294 
8   -0.167984 
9   -0.336042 
10   -0.140754 
11   0.134993 
12   -0.111039 
13   0.640518 
14   -0.094422 
15   -0.369011 
16   -0.489009 
17   -0.466167 
18   0.177478 
19   0.114204 
20   0.147456 
21   0.148599 
22   0.147771 
23   0.115557 
24   0.162153 
25   0.173516 
26   0.170394 
27   0.128083 
28   0.128243 
29   0.129733 
30   0.127473 
31   0.142063 
32   0.173397 
33   0.163007 
34   0.128547 
35   0.141191 
36   0.163916 
 
>  <lowdin_charges> 
36 
1   -0.362672 
2   -0.358006 
3   -0.278591 
4   -0.157647 
5   -0.154214 
6   -0.154236 
7   -0.157126 
8   -0.153142 
9   -0.305751 
10   -0.201355 
11   0.005792 
12   -0.138236 
13   0.198176 
14   -0.041706 
15   -0.185611 
16   -0.262593 
17   -0.196667 
18   0.159624 
19   0.117903 
20   0.150406 
21   0.150615 
22   0.148834 
23   0.119769 
24   0.158571 
25   0.162074 
26   0.159325 
27   0.158334 
28   0.155511 
29   0.15765 
30   0.156619 
31   0.160611 
32   0.171373 
33   0.167799 
34   0.129185 
35   0.151615 
36   0.167766 
 
$$$$ 
 
