PCCDB-ID:  54005 
public computational chemistry database (PCCDB) project, http://pccdb.org 
 
 32 35  0  0  1  0  0  0  0  0999 V2000 
    0.9246   -0.1367   -0.0577 C   0  0  0  0  0  0  0  0  0  0  0  0 
    3.9478    5.6484    2.0791 C   0  0  0  0  0  0  0  0  0  0  0  0 
    4.7368    5.1945    3.1638 C   0  0  0  0  0  0  0  0  0  0  0  0 
    3.4863   -3.5992    1.4180 C   0  0  0  0  0  0  0  0  0  0  0  0 
    4.2658   -3.1616    2.4948 C   0  0  0  0  0  0  0  0  0  0  0  0 
    3.3371    4.7428    1.2397 C   0  0  0  0  0  0  0  0  0  0  0  0 
    4.8989    3.8455    3.3865 C   0  0  0  0  0  0  0  0  0  0  0  0 
    2.8649   -2.6765    0.5691 C   0  0  0  0  0  0  0  0  0  0  0  0 
    4.4366   -1.7982    2.7399 C   0  0  0  0  0  0  0  0  0  0  0  0 
    2.8604    2.3917    0.5823 C   0  0  0  0  0  0  0  0  0  0  0  0 
    4.4381    1.4868    2.7527 C   0  0  0  0  0  0  0  0  0  0  0  0 
    2.4621   -0.1341    0.0365 C   0  0  2  0  0  0  0  0  0  0  0  0 
    3.4830    3.3448    1.4396 C   0  0  0  0  0  0  0  0  0  0  0  0 
    4.2837    2.8833    2.5401 C   0  0  0  0  0  0  0  0  0  0  0  0 
    3.0305   -1.3164    0.8087 C   0  0  0  0  0  0  0  0  0  0  0  0 
    3.8160   -0.8762    1.8933 C   0  0  0  0  0  0  0  0  0  0  0  0 
    3.0262    1.0502    0.8096 C   0  0  0  0  0  0  0  0  0  0  0  0 
    3.8227    0.5916    1.9060 C   0  0  0  0  0  0  0  0  0  0  0  0 
    0.5675   -1.0265   -0.5880 H   0  0  0  0  0  0  0  0  0  0  0  0 
    0.5663    0.7445   -0.6014 H   0  0  0  0  0  0  0  0  0  0  0  0 
    0.4745   -0.1292    0.9405 H   0  0  0  0  0  0  0  0  0  0  0  0 
    3.8257    6.7151    1.9116 H   0  0  0  0  0  0  0  0  0  0  0  0 
    5.2138    5.9164    3.8212 H   0  0  0  0  0  0  0  0  0  0  0  0 
    3.3637   -4.6641    1.2390 H   0  0  0  0  0  0  0  0  0  0  0  0 
    4.7426   -3.8899    3.1454 H   0  0  0  0  0  0  0  0  0  0  0  0 
    2.7303    5.0889    0.4060 H   0  0  0  0  0  0  0  0  0  0  0  0 
    5.5042    3.4945    4.2193 H   0  0  0  0  0  0  0  0  0  0  0  0 
    2.2623   -3.0249   -0.2666 H   0  0  0  0  0  0  0  0  0  0  0  0 
    5.0435   -1.4636    3.5775 H   0  0  0  0  0  0  0  0  0  0  0  0 
    2.2577    2.7520   -0.2494 H   0  0  0  0  0  0  0  0  0  0  0  0 
    5.0458    1.1457    3.5881 H   0  0  0  0  0  0  0  0  0  0  0  0 
    2.8652   -0.1334   -0.9880 H   0  0  0  0  0  0  0  0  0  0  0  0 
  1 12  1  0  0  0  0 
  1 21  1  0  0  0  0 
  2  3  2  0  0  0  0 
  3  7  1  0  0  0  0 
  3 23  1  0  0  0  0 
  4  5  2  0  0  0  0 
  5  9  1  0  0  0  0 
  5 25  1  0  0  0  0 
  6 13  2  0  0  0  0 
  6  2  1  0  0  0  0 
  7 27  1  0  0  0  0 
  8 15  2  0  0  0  0 
  8  4  1  0  0  0  0 
  9 29  1  0  0  0  0 
 10 17  2  0  0  0  0 
 10 13  1  0  0  0  0 
 11 31  1  0  0  0  0 
 12 32  1  6  0  0  0 
 12 15  1  0  0  0  0 
 12 17  1  0  0  0  0 
 13 14  1  0  0  0  0 
 14 11  1  0  0  0  0 
 14  7  2  0  0  0  0 
 15 16  1  0  0  0  0 
 16 18  1  0  0  0  0 
 16  9  2  0  0  0  0 
 17 18  1  0  0  0  0 
 18 11  2  0  0  0  0 
 19  1  1  0  0  0  0 
 20  1  1  0  0  0  0 
 22  2  1  0  0  0  0 
 24  4  1  0  0  0  0 
 26  6  1  0  0  0  0 
 28  8  1  0  0  0  0 
 30 10  1  0  0  0  0 
M  END 
>  <HBA> 
0 
 
>  <HBD> 
0 
 
>  <TPSA> 
0.0 
 
>  <cid> 
54005 
 
>  <dipole> 
0.58 
 
>  <excitation_energy_1> 
3.914 
 
>  <excitation_energy_2> 
3.991 
 
>  <excitation_energy_3> 
4.553 
 
>  <excitation_energy_4> 
4.685 
 
>  <homo_energy> 
-5.519 
 
>  <homo_lumo_gap> 
4.321 
 
>  <logP> 
4.972 
 
>  <lumo_energy> 
-1.197 
 
>  <melting_point> 
118.18 
 
>  <molecular_refractivity> 
77.2 
 
>  <oscillator_strength_1> 
0.2111 
 
>  <oscillator_strength_2> 
0.0097 
 
>  <oscillator_strength_3> 
0.1817 
 
>  <oscillator_strength_4> 
0.5615 
 
>  <open_babel_can_smiles> 
C[C@H]1c2cc3ccccc3cc2c2c1cccc2 
 
>  <mulliken_charges> 
32 
1   -0.435288 
2   -0.137306 
3   -0.138054 
4   -0.129756 
5   -0.13724 
6   -0.195055 
7   -0.192275 
8   -0.202048 
9   -0.188378 
10   -0.289277 
11   -0.282561 
12   -0.241282 
13   0.14627 
14   0.137938 
15   0.104292 
16   0.080604 
17   0.119972 
18   0.091907 
19   0.146864 
20   0.147949 
21   0.158674 
22   0.127969 
23   0.128144 
24   0.127722 
25   0.12846 
26   0.126699 
27   0.127268 
28   0.124989 
29   0.129698 
30   0.123833 
31   0.128401 
32   0.160867 
 
>  <lowdin_charges> 
32 
1   -0.434856 
2   -0.158915 
3   -0.161795 
4   -0.154945 
5   -0.157877 
6   -0.159079 
7   -0.158489 
8   -0.164156 
9   -0.159442 
10   -0.166256 
11   -0.165299 
12   -0.120536 
13   0.00078 
14   0.001801 
15   -0.004764 
16   -0.01197 
17   -0.005523 
18   -0.011491 
19   0.151413 
20   0.151984 
21   0.156571 
22   0.156085 
23   0.159226 
24   0.155862 
25   0.159003 
26   0.156794 
27   0.157196 
28   0.156645 
29   0.158222 
30   0.156123 
31   0.157301 
32   0.160387 
 
$$$$ 
 
