PCCDB-ID:  15448 
public computational chemistry database (PCCDB) project, http://pccdb.org 
 
 36 35  0  0  1  0  0  0  0  0999 V2000 
    6.0443   -6.1426   -1.7462 C   0  0  0  0  0  0  0  0  0  0  0  0 
   13.1457   -2.2163   -0.6950 C   0  0  0  0  0  0  0  0  0  0  0  0 
    6.7874   -5.1386   -2.6351 C   0  0  0  0  0  0  0  0  0  0  0  0 
    6.0098   -3.8402   -2.9135 C   0  0  0  0  0  0  0  0  0  0  0  0 
    5.6701   -2.9833   -1.6790 C   0  0  0  0  0  0  0  0  0  0  0  0 
    6.8720   -2.4910   -0.8525 C   0  0  0  0  0  0  0  0  0  0  0  0 
    7.8347   -1.5705   -1.6184 C   0  0  0  0  0  0  0  0  0  0  0  0 
    8.9396   -0.9403   -0.7544 C   0  0  0  0  0  0  0  0  0  0  0  0 
    9.9363   -1.9477   -0.1527 C   0  0  0  0  0  0  0  0  0  0  0  0 
   11.1200   -1.2857    0.5880 C   0  0  0  0  0  0  0  0  0  0  0  0 
   12.3631   -0.9699   -0.2701 C   0  0  2  0  0  0  0  0  0  0  0  0 
   12.0542   -0.1530   -1.4061 O   0  0  0  0  0  0  0  0  0  0  0  0 
    6.6151   -7.0721   -1.6380 H   0  0  0  0  0  0  0  0  0  0  0  0 
    5.0670   -6.4003   -2.1738 H   0  0  0  0  0  0  0  0  0  0  0  0 
    5.8695   -5.7457   -0.7398 H   0  0  0  0  0  0  0  0  0  0  0  0 
   13.4862   -2.7874    0.1764 H   0  0  0  0  0  0  0  0  0  0  0  0 
   14.0219   -1.9252   -1.2832 H   0  0  0  0  0  0  0  0  0  0  0  0 
   12.5328   -2.8873   -1.3112 H   0  0  0  0  0  0  0  0  0  0  0  0 
    7.0154   -5.6153   -3.5981 H   0  0  0  0  0  0  0  0  0  0  0  0 
    7.7599   -4.9014   -2.1823 H   0  0  0  0  0  0  0  0  0  0  0  0 
    5.0697   -4.0965   -3.4230 H   0  0  0  0  0  0  0  0  0  0  0  0 
    6.5810   -3.2351   -3.6301 H   0  0  0  0  0  0  0  0  0  0  0  0 
    4.9983   -3.5481   -1.0187 H   0  0  0  0  0  0  0  0  0  0  0  0 
    5.0932   -2.1100   -2.0158 H   0  0  0  0  0  0  0  0  0  0  0  0 
    7.4201   -3.3527   -0.4493 H   0  0  0  0  0  0  0  0  0  0  0  0 
    6.4884   -1.9461    0.0224 H   0  0  0  0  0  0  0  0  0  0  0  0 
    7.2518   -0.7637   -2.0860 H   0  0  0  0  0  0  0  0  0  0  0  0 
    8.3012   -2.1246   -2.4460 H   0  0  0  0  0  0  0  0  0  0  0  0 
    8.4788   -0.3704    0.0662 H   0  0  0  0  0  0  0  0  0  0  0  0 
    9.4908   -0.2040   -1.3514 H   0  0  0  0  0  0  0  0  0  0  0  0 
   10.3072   -2.6144   -0.9468 H   0  0  0  0  0  0  0  0  0  0  0  0 
    9.4048   -2.6035    0.5470 H   0  0  0  0  0  0  0  0  0  0  0  0 
   11.4486   -1.9301    1.4148 H   0  0  0  0  0  0  0  0  0  0  0  0 
   10.7726   -0.3509    1.0466 H   0  0  0  0  0  0  0  0  0  0  0  0 
   13.0284   -0.3405    0.3331 H   0  0  0  0  0  0  0  0  0  0  0  0 
   11.5871   -0.7137   -2.0454 H   0  0  0  0  0  0  0  0  0  0  0  0 
  1 13  1  0  0  0  0 
  1 15  1  0  0  0  0 
  2 11  1  0  0  0  0 
  2 16  1  0  0  0  0 
  3 20  1  0  0  0  0 
  3  1  1  0  0  0  0 
  4  3  1  0  0  0  0 
  4  5  1  0  0  0  0 
  5 23  1  0  0  0  0 
  5  6  1  0  0  0  0 
  6 25  1  0  0  0  0 
  6 26  1  0  0  0  0 
  7  6  1  0  0  0  0 
  7  8  1  0  0  0  0 
  8  9  1  0  0  0  0 
  8 29  1  0  0  0  0 
  9 32  1  0  0  0  0 
  9 10  1  0  0  0  0 
 10 34  1  0  0  0  0 
 10 33  1  0  0  0  0 
 11 35  1  1  0  0  0 
 11 10  1  0  0  0  0 
 12 11  1  0  0  0  0 
 14  1  1  0  0  0  0 
 17  2  1  0  0  0  0 
 18  2  1  0  0  0  0 
 19  3  1  0  0  0  0 
 21  4  1  0  0  0  0 
 22  4  1  0  0  0  0 
 24  5  1  0  0  0  0 
 27  7  1  0  0  0  0 
 28  7  1  0  0  0  0 
 30  8  1  0  0  0  0 
 31  9  1  0  0  0  0 
 36 12  1  0  0  0  0 
M  END 
>  <HBA> 
1 
 
>  <HBD> 
1 
 
>  <TPSA> 
20.23 
 
>  <cid> 
15448 
 
>  <dipole> 
1.56 
 
>  <excitation_energy_1> 
6.375 
 
>  <excitation_energy_2> 
6.815 
 
>  <excitation_energy_3> 
7.029 
 
>  <excitation_energy_4> 
7.173 
 
>  <homo_energy> 
-7.012 
 
>  <homo_lumo_gap> 
8.71 
 
>  <logP> 
3.508 
 
>  <lumo_energy> 
1.698 
 
>  <melting_point> 
-11.27 
 
>  <molecular_refractivity> 
56.15 
 
>  <oscillator_strength_1> 
0.0178 
 
>  <oscillator_strength_2> 
0.0068 
 
>  <oscillator_strength_3> 
0.0077 
 
>  <oscillator_strength_4> 
0.0005 
 
>  <open_babel_can_smiles> 
CCCCCCCCC[C@H](O)C 
 
>  <mulliken_charges> 
36 
1   -0.443805 
2   -0.467439 
3   -0.250948 
4   -0.253226 
5   -0.259722 
6   -0.258531 
7   -0.257193 
8   -0.26642 
9   -0.278514 
10   -0.261328 
11   0.13345 
12   -0.618718 
13   0.14112 
14   0.141031 
15   0.146302 
16   0.144542 
17   0.158529 
18   0.137272 
19   0.130049 
20   0.132022 
21   0.126387 
22   0.131026 
23   0.130697 
24   0.127067 
25   0.1359 
26   0.12681 
27   0.128552 
28   0.126084 
29   0.129628 
30   0.140035 
31   0.119885 
32   0.140291 
33   0.125874 
34   0.14103 
35   0.134759 
36   0.387502 
 
>  <lowdin_charges> 
36 
1   -0.446474 
2   -0.46692 
3   -0.275934 
4   -0.281321 
5   -0.281078 
6   -0.282435 
7   -0.280922 
8   -0.284623 
9   -0.287946 
10   -0.294067 
11   -0.001259 
12   -0.467294 
13   0.149359 
14   0.145811 
15   0.146318 
16   0.154216 
17   0.158546 
18   0.145185 
19   0.141734 
20   0.137807 
21   0.140326 
22   0.141824 
23   0.142459 
24   0.141087 
25   0.140022 
26   0.141116 
27   0.142121 
28   0.136487 
29   0.140048 
30   0.146685 
31   0.132623 
32   0.147438 
33   0.144973 
34   0.148994 
35   0.145011 
36   0.340085 
 
$$$$ 
 
