PCCDB-ID:  53160 
public computational chemistry database (PCCDB) project, http://pccdb.org 
 
 33 34  0  0  1  0  0  0  0  0999 V2000 
   -0.2488   -0.2364   -0.9133 C   0  0  0  0  0  0  0  0  0  0  0  0 
    3.1289    2.2099   -2.2241 C   0  0  0  0  0  0  0  0  0  0  0  0 
    2.8483   -3.2647   -1.5430 C   0  0  0  0  0  0  0  0  0  0  0  0 
    7.3954   -0.5410   -0.3865 C   0  0  0  0  0  0  0  0  0  0  0  0 
    6.2416   -0.4210    0.3925 C   0  0  0  0  0  0  0  0  0  0  0  0 
    7.2925   -0.6830   -1.7714 C   0  0  0  0  0  0  0  0  0  0  0  0 
    4.9828   -0.4415   -0.2089 C   0  0  0  0  0  0  0  0  0  0  0  0 
    6.0370   -0.7048   -2.3796 C   0  0  0  0  0  0  0  0  0  0  0  0 
    1.1307   -0.2290   -0.2508 C   0  0  2  0  0  0  0  0  0  0  0  0 
    2.3420    0.9226   -2.0215 C   0  0  2  0  0  0  0  0  0  0  0  0 
    2.1985   -1.8943   -1.6688 C   0  0  1  0  0  0  0  0  0  0  0  0 
    4.8758   -0.5839   -1.6023 C   0  0  0  0  0  0  0  0  0  0  0  0 
    3.4358   -0.8138   -3.9786 O   0  0  0  0  0  0  0  0  0  0  0  0 
    1.9421    0.8675   -0.6438 O   0  0  0  0  0  0  0  0  0  0  0  0 
    1.8194   -1.4663   -0.3523 O   0  0  0  0  0  0  0  0  0  0  0  0 
    3.2861   -0.6187   -2.4929 P   0  0  2  0  0  0  0  0  0  0  0  0 
   -0.7479    0.7150   -0.7067 H   0  0  0  0  0  0  0  0  0  0  0  0 
   -0.8489   -1.0474   -0.4895 H   0  0  0  0  0  0  0  0  0  0  0  0 
   -0.2155   -0.3728   -1.9976 H   0  0  0  0  0  0  0  0  0  0  0  0 
    2.4959    3.0704   -1.9829 H   0  0  0  0  0  0  0  0  0  0  0  0 
    3.4556    2.2926   -3.2654 H   0  0  0  0  0  0  0  0  0  0  0  0 
    4.0075    2.2321   -1.5737 H   0  0  0  0  0  0  0  0  0  0  0  0 
    2.1352   -3.9721   -1.1068 H   0  0  0  0  0  0  0  0  0  0  0  0 
    3.7310   -3.2226   -0.8984 H   0  0  0  0  0  0  0  0  0  0  0  0 
    3.1501   -3.6303   -2.5295 H   0  0  0  0  0  0  0  0  0  0  0  0 
    8.3738   -0.5241    0.0866 H   0  0  0  0  0  0  0  0  0  0  0  0 
    6.3211   -0.3110    1.4707 H   0  0  0  0  0  0  0  0  0  0  0  0 
    8.1889   -0.7773   -2.3786 H   0  0  0  0  0  0  0  0  0  0  0  0 
    4.0877   -0.3487    0.3950 H   0  0  0  0  0  0  0  0  0  0  0  0 
    5.9391   -0.8170   -3.4554 H   0  0  0  0  0  0  0  0  0  0  0  0 
    1.0077   -0.0890    0.8258 H   0  0  0  0  0  0  0  0  0  0  0  0 
    1.4623    0.9305   -2.6824 H   0  0  0  0  0  0  0  0  0  0  0  0 
    1.3146   -1.9740   -2.3200 H   0  0  0  0  0  0  0  0  0  0  0  0 
  1 17  1  0  0  0  0 
  1 18  1  0  0  0  0 
  1  9  1  0  0  0  0 
  2 10  1  0  0  0  0 
  2 20  1  0  0  0  0 
  2 22  1  0  0  0  0 
  3 23  1  0  0  0  0 
  3 24  1  0  0  0  0 
  4 26  1  0  0  0  0 
  4  5  2  0  0  0  0 
  5 27  1  0  0  0  0 
  6  4  1  0  0  0  0 
  7  5  1  0  0  0  0 
  7 29  1  0  0  0  0 
  8  6  2  0  0  0  0 
  8 12  1  0  0  0  0 
  9 31  1  1  0  0  0 
 10 32  1  6  0  0  0 
 10 14  1  0  0  0  0 
 11 33  1  6  0  0  0 
 11  3  1  0  0  0  0 
 11 15  1  0  0  0  0 
 12  7  2  0  0  0  0 
 14  9  1  0  0  0  0 
 15  9  1  0  0  0  0 
 16 13  2  6  0  0  0 
 16 10  1  0  0  0  0 
 16 11  1  0  0  0  0 
 16 12  1  0  0  0  0 
 19  1  1  0  0  0  0 
 21  2  1  0  0  0  0 
 25  3  1  0  0  0  0 
 28  6  1  0  0  0  0 
 30  8  1  0  0  0  0 
M  END 
>  <HBA> 
3 
 
>  <HBD> 
0 
 
>  <TPSA> 
45.34 
 
>  <cid> 
53160 
 
>  <dipole> 
2.61 
 
>  <excitation_energy_1> 
4.99 
 
>  <excitation_energy_2> 
5.206 
 
>  <excitation_energy_3> 
5.438 
 
>  <excitation_energy_4> 
5.517 
 
>  <homo_energy> 
-6.368 
 
>  <homo_lumo_gap> 
5.723 
 
>  <logP> 
2.76 
 
>  <lumo_energy> 
-0.645 
 
>  <melting_point> 
30.03 
 
>  <molecular_refractivity> 
64.69 
 
>  <oscillator_strength_1> 
0.0492 
 
>  <oscillator_strength_2> 
0.0065 
 
>  <oscillator_strength_3> 
0.0032 
 
>  <oscillator_strength_4> 
0.0083 
 
>  <open_babel_can_smiles> 
C[C@@H]1O[C@@H](C)O[C@@H]([P@]1(=O)c1ccccc1)C 
 
>  <mulliken_charges> 
33 
1   -0.486786 
2   -0.472861 
3   -0.473151 
4   -0.125344 
5   -0.127258 
6   -0.126559 
7   -0.157223 
8   -0.166757 
9   0.344455 
10   -0.087137 
11   -0.087762 
12   -0.120494 
13   -0.571392 
14   -0.486793 
15   -0.486463 
16   0.902904 
17   0.166383 
18   0.166131 
19   0.160449 
20   0.160148 
21   0.176517 
22   0.171294 
23   0.16027 
24   0.170808 
25   0.176943 
26   0.136311 
27   0.136147 
28   0.137666 
29   0.16441 
30   0.176943 
31   0.151494 
32   0.15827 
33   0.158438 
 
>  <lowdin_charges> 
33 
1   -0.472691 
2   -0.444668 
3   -0.44605 
4   -0.143718 
5   -0.154548 
6   -0.156687 
7   -0.149396 
8   -0.135602 
9   0.098845 
10   -0.157399 
11   -0.156899 
12   -0.190149 
13   -0.627544 
14   -0.265292 
15   -0.265165 
16   0.874733 
17   0.16694 
18   0.167695 
19   0.156193 
20   0.161505 
21   0.170679 
22   0.165455 
23   0.162162 
24   0.165105 
25   0.171693 
26   0.160163 
27   0.158825 
28   0.162083 
29   0.174427 
30   0.180518 
31   0.15313 
32   0.157715 
33   0.15794 
 
$$$$ 
 
