PCCDB-ID:  30904 
public computational chemistry database (PCCDB) project, http://pccdb.org 
 
 28 27  0  0  0  0  0  0  0  0999 V2000 
    7.5811    3.7316    2.1148 C   0  0  0  0  0  0  0  0  0  0  0  0 
    7.4114   -3.6104    0.0876 C   0  0  0  0  0  0  0  0  0  0  0  0 
    5.8678   -3.1694   -1.6920 C   0  0  0  0  0  0  0  0  0  0  0  0 
    8.3084    2.4742    1.6618 C   0  0  0  0  0  0  0  0  0  0  0  0 
    4.9565   -0.7361   -0.0026 C   0  0  0  0  0  0  0  0  0  0  0  0 
    5.9773    0.3624   -0.3148 C   0  0  0  0  0  0  0  0  0  0  0  0 
    5.6012   -2.0536    0.4525 C   0  0  0  0  0  0  0  0  0  0  0  0 
    6.6327    0.9454    0.9229 C   0  0  0  0  0  0  0  0  0  0  0  0 
    6.5394   -2.6153   -0.5233 N   0  0  0  0  0  0  0  0  0  0  0  0 
    6.3373    0.6837    2.0713 O   0  0  0  0  0  0  0  0  0  0  0  0 
    7.6055    1.8214    0.5786 O   0  0  0  0  0  0  0  0  0  0  0  0 
    8.1704    4.2487    2.8810 H   0  0  0  0  0  0  0  0  0  0  0  0 
    6.6076    3.4787    2.5448 H   0  0  0  0  0  0  0  0  0  0  0  0 
    7.4305    4.4183    1.2753 H   0  0  0  0  0  0  0  0  0  0  0  0 
    8.1437   -3.9608   -0.6486 H   0  0  0  0  0  0  0  0  0  0  0  0 
    6.8653   -4.4963    0.4695 H   0  0  0  0  0  0  0  0  0  0  0  0 
    7.9570   -3.1623    0.9246 H   0  0  0  0  0  0  0  0  0  0  0  0 
    6.6144   -3.5379   -2.4039 H   0  0  0  0  0  0  0  0  0  0  0  0 
    5.2782   -2.3996   -2.1985 H   0  0  0  0  0  0  0  0  0  0  0  0 
    5.1887   -4.0094   -1.4415 H   0  0  0  0  0  0  0  0  0  0  0  0 
    8.4228    1.7659    2.4859 H   0  0  0  0  0  0  0  0  0  0  0  0 
    9.2915    2.7086    1.2454 H   0  0  0  0  0  0  0  0  0  0  0  0 
    4.3342   -0.9011   -0.8902 H   0  0  0  0  0  0  0  0  0  0  0  0 
    4.2837   -0.3978    0.7932 H   0  0  0  0  0  0  0  0  0  0  0  0 
    5.5093    1.1953   -0.8558 H   0  0  0  0  0  0  0  0  0  0  0  0 
    6.7666   -0.0253   -0.9683 H   0  0  0  0  0  0  0  0  0  0  0  0 
    4.8035   -2.7793    0.7102 H   0  0  0  0  0  0  0  0  0  0  0  0 
    6.1572   -1.8563    1.3746 H   0  0  0  0  0  0  0  0  0  0  0  0 
  1 13  1  0  0  0  0 
  1 12  1  0  0  0  0 
  2 16  1  0  0  0  0 
  2 17  1  0  0  0  0 
  3 20  1  0  0  0  0 
  3  9  1  0  0  0  0 
  4  1  1  0  0  0  0 
  4 21  1  0  0  0  0 
  5  7  1  0  0  0  0 
  5 24  1  0  0  0  0 
  6  5  1  0  0  0  0 
  6  8  1  0  0  0  0 
  7 27  1  0  0  0  0 
  7 28  1  0  0  0  0 
  8 10  2  0  0  0  0 
  9  2  1  0  0  0  0 
  9  7  1  0  0  0  0 
 11  8  1  0  0  0  0 
 11  4  1  0  0  0  0 
 14  1  1  0  0  0  0 
 15  2  1  0  0  0  0 
 18  3  1  0  0  0  0 
 19  3  1  0  0  0  0 
 22  4  1  0  0  0  0 
 23  5  1  0  0  0  0 
 25  6  1  0  0  0  0 
 26  6  1  0  0  0  0 
M  END 
>  <HBA> 
3 
 
>  <HBD> 
0 
 
>  <TPSA> 
29.54 
 
>  <cid> 
30904 
 
>  <dipole> 
1.13 
 
>  <excitation_energy_1> 
5.237 
 
>  <excitation_energy_2> 
5.323 
 
>  <excitation_energy_3> 
5.713 
 
>  <excitation_energy_4> 
5.782 
 
>  <homo_energy> 
-5.701 
 
>  <homo_lumo_gap> 
6.221 
 
>  <logP> 
0.891 
 
>  <lumo_energy> 
0.52 
 
>  <melting_point> 
-12.81 
 
>  <molecular_refractivity> 
44.75 
 
>  <oscillator_strength_1> 
0.013 
 
>  <oscillator_strength_2> 
0.0082 
 
>  <oscillator_strength_3> 
0.0101 
 
>  <oscillator_strength_4> 
0.0534 
 
>  <open_babel_can_smiles> 
CCOC(=O)CCCN(C)C 
 
>  <mulliken_charges> 
28 
1   -0.460867 
2   -0.293345 
3   -0.299543 
4   -0.043226 
5   -0.270644 
6   -0.35509 
7   -0.12704 
8   0.623778 
9   -0.366822 
10   -0.487564 
11   -0.461883 
12   0.148996 
13   0.174138 
14   0.156229 
15   0.145092 
16   0.117185 
17   0.151365 
18   0.147567 
19   0.149769 
20   0.117008 
21   0.168963 
22   0.151035 
23   0.133299 
24   0.154692 
25   0.166015 
26   0.191727 
27   0.108871 
28   0.160294 
 
>  <lowdin_charges> 
28 
1   -0.456446 
2   -0.358043 
3   -0.361831 
4   -0.129592 
5   -0.281302 
6   -0.307354 
7   -0.206054 
8   0.200789 
9   -0.186271 
10   -0.276536 
11   -0.19688 
12   0.159145 
13   0.164004 
14   0.156057 
15   0.148913 
16   0.120696 
17   0.151777 
18   0.150951 
19   0.150248 
20   0.120533 
21   0.158712 
22   0.150831 
23   0.14431 
24   0.159436 
25   0.169386 
26   0.179106 
27   0.120159 
28   0.155257 
 
$$$$ 
 
