PCCDB-ID:  65963 
public computational chemistry database (PCCDB) project, http://pccdb.org 
 
 27 27  0  0  1  0  0  0  0  0999 V2000 
    0.8006    0.3009    0.0235 C   0  0  0  0  0  0  0  0  0  0  0  0 
    3.0703    1.4331   -0.1742 C   0  0  0  0  0  0  0  0  0  0  0  0 
    3.1814   -3.7476    0.6821 C   0  0  0  0  0  0  0  0  0  0  0  0 
    2.6694   -0.6735   -1.3530 C   0  0  0  0  0  0  0  0  0  0  0  0 
    4.1978   -2.5977    0.9870 C   0  0  1  0  0  0  0  0  0  0  0  0 
    5.2022   -2.2478   -0.1337 C   0  0  0  0  0  0  0  0  0  0  0  0 
    2.8358   -0.5591    1.3037 C   0  0  0  0  0  0  0  0  0  0  0  0 
    2.3331    0.0664   -0.0420 C   0  0  0  0  0  0  0  0  0  0  0  0 
    3.5919   -1.5072    1.6717 N   0  0  0  0  0  0  0  0  0  0  0  0 
    5.5225   -1.1258   -0.4404 O   0  0  0  0  0  0  0  0  0  0  0  0 
    5.8521   -3.3023   -0.6914 O   0  0  0  0  0  0  0  0  0  0  0  0 
    2.3870    0.1740    2.3757 O   0  0  0  0  0  0  0  0  0  0  0  0 
    1.5366   -3.2482    0.0648 S   0  0  0  0  0  0  0  0  0  0  0  0 
    1.9336   -2.3341   -1.7498 S   0  0  0  0  0  0  0  0  0  0  0  0 
    0.2634   -0.6058    0.3119 H   0  0  0  0  0  0  0  0  0  0  0  0 
    0.5174    1.0992    0.7211 H   0  0  0  0  0  0  0  0  0  0  0  0 
    0.4377    0.6145   -0.9608 H   0  0  0  0  0  0  0  0  0  0  0  0 
    2.7187    1.9667   -1.0640 H   0  0  0  0  0  0  0  0  0  0  0  0 
    4.1492    1.2764   -0.2598 H   0  0  0  0  0  0  0  0  0  0  0  0 
    2.8906    2.0777    0.6924 H   0  0  0  0  0  0  0  0  0  0  0  0 
    2.9438   -4.2455    1.6284 H   0  0  0  0  0  0  0  0  0  0  0  0 
    3.6033   -4.5006    0.0075 H   0  0  0  0  0  0  0  0  0  0  0  0 
    3.7453   -0.7518   -1.4746 H   0  0  0  0  0  0  0  0  0  0  0  0 
    2.2896   -0.0541   -2.1731 H   0  0  0  0  0  0  0  0  0  0  0  0 
    4.8791   -3.0672    1.7214 H   0  0  0  0  0  0  0  0  0  0  0  0 
    5.5120   -4.1440   -0.3458 H   0  0  0  0  0  0  0  0  0  0  0  0 
    1.8090    0.8892    2.0747 H   0  0  0  0  0  0  0  0  0  0  0  0 
  1 15  1  0  0  0  0 
  1 16  1  0  0  0  0 
  2  8  1  0  0  0  0 
  2 20  1  0  0  0  0 
  3  5  1  0  0  0  0 
  3 21  1  0  0  0  0 
  4  8  1  0  0  0  0 
  5  9  1  0  0  0  0 
  5 25  1  1  0  0  0 
  6  5  1  0  0  0  0 
  7  9  2  0  0  0  0 
  7 12  1  0  0  0  0 
  8  1  1  0  0  0  0 
  8  7  1  0  0  0  0 
 10  6  2  0  0  0  0 
 11 26  1  0  0  0  0 
 11  6  1  0  0  0  0 
 13  3  1  0  0  0  0 
 14  4  1  0  0  0  0 
 14 13  1  0  0  0  0 
 17  1  1  0  0  0  0 
 18  2  1  0  0  0  0 
 19  2  1  0  0  0  0 
 22  3  1  0  0  0  0 
 23  4  1  0  0  0  0 
 24  4  1  0  0  0  0 
 27 12  1  0  0  0  0 
M  END 
>  <HBA> 
6 
 
>  <HBD> 
2 
 
>  <TPSA> 
117.0 
 
>  <cid> 
65963 
 
>  <dipole> 
1.46 
 
>  <excitation_energy_1> 
4.355 
 
>  <excitation_energy_2> 
4.834 
 
>  <excitation_energy_3> 
4.955 
 
>  <excitation_energy_4> 
5.093 
 
>  <homo_energy> 
-6.474 
 
>  <homo_lumo_gap> 
5.587 
 
>  <logP> 
1.306 
 
>  <lumo_energy> 
-0.887 
 
>  <melting_point> 
157.04 
 
>  <molecular_refractivity> 
62.07 
 
>  <oscillator_strength_1> 
0.0055 
 
>  <oscillator_strength_2> 
0.0007 
 
>  <oscillator_strength_3> 
0.0022 
 
>  <oscillator_strength_4> 
0.0134 
 
>  <open_babel_can_smiles> 
OC(=O)[C@@H]1CSSCC(C(=N1)O)(C)C 
 
>  <mulliken_charges> 
27 
1   -0.467129 
2   -0.460627 
3   -0.447551 
4   -0.472438 
5   -0.104191 
6   0.614716 
7   0.54127 
8   -0.010795 
9   -0.42581 
10   -0.451097 
11   -0.561042 
12   -0.578206 
13   0.04121 
14   0.011603 
15   0.193247 
16   0.132845 
17   0.160613 
18   0.152575 
19   0.198627 
20   0.142411 
21   0.204559 
22   0.169126 
23   0.235571 
24   0.178563 
25   0.181913 
26   0.413292 
27   0.406745 
 
>  <lowdin_charges> 
27 
1   -0.448065 
2   -0.440038 
3   -0.401691 
4   -0.397079 
5   -0.106391 
6   0.18671 
7   0.162863 
8   -0.017515 
9   -0.209263 
10   -0.241346 
11   -0.348505 
12   -0.363718 
13   0.058084 
14   0.025701 
15   0.173745 
16   0.143551 
17   0.1608 
18   0.155017 
19   0.17496 
20   0.149807 
21   0.185107 
22   0.159408 
23   0.186277 
24   0.172604 
25   0.173734 
26   0.356816 
27   0.348427 
 
$$$$ 
 
