PCCDB-ID:  69292 
public computational chemistry database (PCCDB) project, http://pccdb.org 
 
 26 27  0  0  0  0  0  0  0  0999 V2000 
   -1.1981   -1.0892    0.8648 C   0  0  0  0  0  0  0  0  0  0  0  0 
   -1.2055   -1.5770   -0.4410 C   0  0  0  0  0  0  0  0  0  0  0  0 
   -0.6914    0.1871    1.1015 C   0  0  0  0  0  0  0  0  0  0  0  0 
   -1.0962    4.3172    0.8967 C   0  0  0  0  0  0  0  0  0  0  0  0 
   -1.1838    3.5633   -1.3966 C   0  0  0  0  0  0  0  0  0  0  0  0 
   -2.0189    5.3217    0.6147 C   0  0  0  0  0  0  0  0  0  0  0  0 
   -2.1060    4.5595   -1.6967 C   0  0  0  0  0  0  0  0  0  0  0  0 
   -0.7030   -0.7564   -1.4508 C   0  0  0  0  0  0  0  0  0  0  0  0 
    0.3460    2.3389    0.2192 C   0  0  0  0  0  0  0  0  0  0  0  0 
   -0.6656    3.4290   -0.0980 C   0  0  0  0  0  0  0  0  0  0  0  0 
   -0.2041    0.9357    0.0234 C   0  0  0  0  0  0  0  0  0  0  0  0 
   -2.5116    5.4281   -0.6832 C   0  0  0  0  0  0  0  0  0  0  0  0 
   -0.2096    0.4687   -1.2356 N   0  0  0  0  0  0  0  0  0  0  0  0 
   -3.4852    6.4843   -0.9925 N   0  0  0  0  0  0  0  0  0  0  0  0 
   -3.8297    7.2329   -0.0772 O   0  0  0  0  0  0  0  0  0  0  0  0 
   -3.9012    6.5599   -2.1491 O   0  0  0  0  0  0  0  0  0  0  0  0 
   -1.5778   -1.6917    1.6856 H   0  0  0  0  0  0  0  0  0  0  0  0 
   -1.5874   -2.5661   -0.6746 H   0  0  0  0  0  0  0  0  0  0  0  0 
   -0.6711    0.6000    2.1060 H   0  0  0  0  0  0  0  0  0  0  0  0 
   -0.7018    4.2269    1.9054 H   0  0  0  0  0  0  0  0  0  0  0  0 
   -0.8626    2.8695   -2.1672 H   0  0  0  0  0  0  0  0  0  0  0  0 
   -2.3577    6.0152    1.3744 H   0  0  0  0  0  0  0  0  0  0  0  0 
   -2.5121    4.6768   -2.6938 H   0  0  0  0  0  0  0  0  0  0  0  0 
   -0.6900   -1.0990   -2.4842 H   0  0  0  0  0  0  0  0  0  0  0  0 
    0.6971    2.4585    1.2496 H   0  0  0  0  0  0  0  0  0  0  0  0 
    1.2156    2.4518   -0.4384 H   0  0  0  0  0  0  0  0  0  0  0  0 
  1  3  1  0  0  0  0 
  1 17  1  0  0  0  0 
  2  1  2  0  0  0  0 
  3 19  1  0  0  0  0 
  4 20  1  0  0  0  0 
  5 10  1  0  0  0  0 
  6  4  1  0  0  0  0 
  6 22  1  0  0  0  0 
  7  5  2  0  0  0  0 
  7 12  1  0  0  0  0 
  8 13  2  0  0  0  0 
  8  2  1  0  0  0  0 
  9 25  1  0  0  0  0 
 10  9  1  0  0  0  0 
 10  4  2  0  0  0  0 
 11  9  1  0  0  0  0 
 11  3  2  0  0  0  0 
 12  6  2  0  0  0  0 
 13 11  1  0  0  0  0 
 14 12  1  0  0  0  0 
 14 15  2  0  0  0  0 
 16 14  2  0  0  0  0 
 18  2  1  0  0  0  0 
 21  5  1  0  0  0  0 
 23  7  1  0  0  0  0 
 24  8  1  0  0  0  0 
 26  9  1  0  0  0  0 
M  END 
>  <HBA> 
1 
 
>  <HBD> 
0 
 
>  <TPSA> 
58.71 
 
>  <cid> 
69292 
 
>  <dipole> 
6.28 
 
>  <excitation_energy_1> 
3.745 
 
>  <excitation_energy_2> 
4.195 
 
>  <excitation_energy_3> 
4.226 
 
>  <excitation_energy_4> 
4.279 
 
>  <homo_energy> 
-7.097 
 
>  <homo_lumo_gap> 
4.833 
 
>  <logP> 
3.104 
 
>  <lumo_energy> 
-2.264 
 
>  <melting_point> 
92.85 
 
>  <molecular_refractivity> 
62.51 
 
>  <oscillator_strength_1> 
0.0 
 
>  <oscillator_strength_2> 
0.1385 
 
>  <oscillator_strength_3> 
0.0123 
 
>  <oscillator_strength_4> 
0.0252 
 
>  <open_babel_can_smiles> 
O=N(=O)c1ccc(cc1)Cc1ccccn1 
 
>  <mulliken_charges> 
26 
1   -0.100416 
2   -0.140469 
3   -0.162884 
4   -0.199341 
5   -0.183686 
6   -0.147476 
7   -0.148807 
8   0.039298 
9   -0.419957 
10   0.182864 
11   0.305853 
12   0.273455 
13   -0.46285 
14   0.377615 
15   -0.398779 
16   -0.39713 
17   0.14839 
18   0.14338 
19   0.137323 
20   0.137912 
21   0.170995 
22   0.180622 
23   0.181625 
24   0.14609 
25   0.152895 
26   0.18348 
 
>  <lowdin_charges> 
26 
1   -0.124078 
2   -0.174257 
3   -0.178447 
4   -0.16286 
5   -0.154533 
6   -0.138044 
7   -0.135297 
8   -0.083336 
9   -0.275741 
10   0.024242 
11   0.056159 
12   -0.00315 
13   -0.161174 
14   0.308985 
15   -0.251648 
16   -0.248077 
17   0.167145 
18   0.166421 
19   0.162845 
20   0.161037 
21   0.179215 
22   0.187758 
23   0.186351 
24   0.157965 
25   0.15571 
26   0.176809 
 
$$$$ 
 
