PCCDB-ID:  11240 
public computational chemistry database (PCCDB) project, http://pccdb.org 
 
 15 14  0  0  0  0  0  0  0  0999 V2000 
    2.4488   -0.1243    1.4359 C   0  0  0  0  0  0  0  0  0  0  0  0 
    2.1309   -2.3396   -1.3285 C   0  0  0  0  0  0  0  0  0  0  0  0 
    4.4009   -1.6104   -0.6177 C   0  0  0  0  0  0  0  0  0  0  0  0 
    2.3195   -0.1833   -0.0970 C   0  0  0  0  0  0  0  0  0  0  0  0 
    2.9042   -1.4361   -0.7172 C   0  0  0  0  0  0  0  0  0  0  0  0 
    1.9855    0.7883    1.8277 H   0  0  0  0  0  0  0  0  0  0  0  0 
    3.4963   -0.1257    1.7569 H   0  0  0  0  0  0  0  0  0  0  0  0 
    1.9538   -0.9834    1.9025 H   0  0  0  0  0  0  0  0  0  0  0  0 
    2.5446   -3.2411   -1.7743 H   0  0  0  0  0  0  0  0  0  0  0  0 
    1.0538   -2.2109   -1.4067 H   0  0  0  0  0  0  0  0  0  0  0  0 
    4.7345   -2.5221   -1.1225 H   0  0  0  0  0  0  0  0  0  0  0  0 
    4.7343   -1.6635    0.4269 H   0  0  0  0  0  0  0  0  0  0  0  0 
    4.9265   -0.7577   -1.0698 H   0  0  0  0  0  0  0  0  0  0  0  0 
    2.8189    0.6988   -0.5259 H   0  0  0  0  0  0  0  0  0  0  0  0 
    1.2606   -0.1058   -0.3712 H   0  0  0  0  0  0  0  0  0  0  0  0 
  1  7  1  0  0  0  0 
  1  6  1  0  0  0  0 
  1  8  1  0  0  0  0 
  2  5  2  0  0  0  0 
  3 12  1  0  0  0  0 
  4  1  1  0  0  0  0 
  5  3  1  0  0  0  0 
  5  4  1  0  0  0  0 
  9  2  1  0  0  0  0 
 10  2  1  0  0  0  0 
 11  3  1  0  0  0  0 
 13  3  1  0  0  0  0 
 14  4  1  0  0  0  0 
 15  4  1  0  0  0  0 
M  END 
>  <HBA> 
0 
 
>  <HBD> 
0 
 
>  <TPSA> 
0.0 
 
>  <cid> 
11240 
 
>  <dipole> 
0.5 
 
>  <excitation_energy_1> 
6.136 
 
>  <excitation_energy_2> 
6.555 
 
>  <excitation_energy_3> 
6.716 
 
>  <excitation_energy_4> 
6.808 
 
>  <homo_energy> 
-6.512 
 
>  <homo_lumo_gap> 
7.323 
 
>  <logP> 
1.972 
 
>  <lumo_energy> 
0.811 
 
>  <melting_point> 
-43.08 
 
>  <molecular_refractivity> 
25.68 
 
>  <oscillator_strength_1> 
0.0405 
 
>  <oscillator_strength_2> 
0.1884 
 
>  <oscillator_strength_3> 
0.0175 
 
>  <oscillator_strength_4> 
0.027 
 
>  <open_babel_can_smiles> 
CCC(=C)C 
 
>  <mulliken_charges> 
15 
1   -0.443197 
2   -0.400172 
3   -0.512503 
4   -0.317353 
5   0.238666 
6   0.144564 
7   0.145607 
8   0.150716 
9   0.128878 
10   0.129387 
11   0.152365 
12   0.156 
13   0.150633 
14   0.137094 
15   0.139314 
 
>  <lowdin_charges> 
15 
1   -0.444224 
2   -0.364859 
3   -0.442778 
4   -0.269763 
5   0.010173 
6   0.151292 
7   0.146435 
8   0.151958 
9   0.152487 
10   0.150433 
11   0.156963 
12   0.154838 
13   0.155127 
14   0.145656 
15   0.146261 
 
$$$$ 
 
