PCCDB-ID:  37325 
public computational chemistry database (PCCDB) project, http://pccdb.org 
 
 28 28  0  0  0  0  0  0  0  0999 V2000 
    4.3128   -0.4663    1.3519 C   0  0  0  0  0  0  0  0  0  0  0  0 
    3.1798    1.7778    1.5920 C   0  0  0  0  0  0  0  0  0  0  0  0 
    4.2905   -3.5154   -2.2297 C   0  0  0  0  0  0  0  0  0  0  0  0 
    6.2470    1.5292   -4.8863 C   0  0  0  0  0  0  0  0  0  0  0  0 
    5.8853    2.4870   -3.9340 C   0  0  0  0  0  0  0  0  0  0  0  0 
    6.1087    0.1806   -4.5800 C   0  0  0  0  0  0  0  0  0  0  0  0 
    5.4038    2.0920   -2.6919 C   0  0  0  0  0  0  0  0  0  0  0  0 
    5.5956   -0.2379   -3.3426 C   0  0  0  0  0  0  0  0  0  0  0  0 
    5.2459    0.7310   -2.3733 C   0  0  0  0  0  0  0  0  0  0  0  0 
    5.4668   -1.7183   -3.1754 C   0  0  0  0  0  0  0  0  0  0  0  0 
    4.8637    0.3011   -1.0823 N   0  0  0  0  0  0  0  0  0  0  0  0 
    4.1480    1.1451   -0.4614 N   0  0  0  0  0  0  0  0  0  0  0  0 
    3.7966    0.7603    0.7642 N   0  0  0  0  0  0  0  0  0  0  0  0 
    6.1671   -2.5206   -3.7650 O   0  0  0  0  0  0  0  0  0  0  0  0 
    4.4535   -2.0965   -2.3664 O   0  0  0  0  0  0  0  0  0  0  0  0 
    3.7719   -0.6557    2.2819 H   0  0  0  0  0  0  0  0  0  0  0  0 
    5.3892   -0.3903    1.5587 H   0  0  0  0  0  0  0  0  0  0  0  0 
    4.1661   -1.2919    0.6521 H   0  0  0  0  0  0  0  0  0  0  0  0 
    2.3309    1.3562    2.1418 H   0  0  0  0  0  0  0  0  0  0  0  0 
    2.8248    2.5737    0.9356 H   0  0  0  0  0  0  0  0  0  0  0  0 
    3.8894    2.2030    2.3171 H   0  0  0  0  0  0  0  0  0  0  0  0 
    3.4320   -3.6473   -1.5698 H   0  0  0  0  0  0  0  0  0  0  0  0 
    5.1851   -3.9678   -1.7927 H   0  0  0  0  0  0  0  0  0  0  0  0 
    4.1021   -3.9789   -3.2020 H   0  0  0  0  0  0  0  0  0  0  0  0 
    6.6396    1.8325   -5.8525 H   0  0  0  0  0  0  0  0  0  0  0  0 
    5.9969    3.5457   -4.1543 H   0  0  0  0  0  0  0  0  0  0  0  0 
    6.3916   -0.5842   -5.2956 H   0  0  0  0  0  0  0  0  0  0  0  0 
    5.1553    2.8273   -1.9347 H   0  0  0  0  0  0  0  0  0  0  0  0 
  1 17  1  0  0  0  0 
  1 16  1  0  0  0  0 
  2 19  1  0  0  0  0 
  2 21  1  0  0  0  0 
  3 23  1  0  0  0  0 
  3 22  1  0  0  0  0 
  4  6  2  0  0  0  0 
  4  5  1  0  0  0  0 
  5  7  2  0  0  0  0 
  6  8  1  0  0  0  0 
  7  9  1  0  0  0  0 
  7 28  1  0  0  0  0 
  8 10  1  0  0  0  0 
  8  9  2  0  0  0  0 
  9 11  1  0  0  0  0 
 10 15  1  0  0  0  0 
 11 12  1  0  0  0  0 
 12 13  1  0  0  0  0 
 13  1  1  0  0  0  0 
 13  2  1  0  0  0  0 
 14 10  2  0  0  0  0 
 15  3  1  0  0  0  0 
 18  1  1  0  0  0  0 
 20  2  1  0  0  0  0 
 24  3  1  0  0  0  0 
 25  4  1  0  0  0  0 
 26  5  1  0  0  0  0 
 27  6  1  0  0  0  0 
M  RAD  2  11   2  12   2 
M  END 
>  <HBA> 
5 
 
>  <HBD> 
0 
 
>  <TPSA> 
54.26 
 
>  <cid> 
37325 
 
>  <dipole> 
4.39 
 
>  <excitation_energy_1> 
3.827 
 
>  <excitation_energy_2> 
4.108 
 
>  <excitation_energy_3> 
4.411 
 
>  <excitation_energy_4> 
4.793 
 
>  <homo_energy> 
-5.698 
 
>  <homo_lumo_gap> 
4.525 
 
>  <logP> 
2.034 
 
>  <lumo_energy> 
-1.173 
 
>  <melting_point> 
55.14 
 
>  <molecular_refractivity> 
55.8 
 
>  <oscillator_strength_1> 
0.0846 
 
>  <oscillator_strength_2> 
0.1921 
 
>  <oscillator_strength_3> 
0.2071 
 
>  <oscillator_strength_4> 
0.0826 
 
>  <open_babel_can_smiles> 
COC(=O)c1ccccc1[N][N]N(C)C 
 
>  <mulliken_charges> 
28 
1   -0.308349 
2   -0.301522 
3   -0.21533 
4   -0.132888 
5   -0.131895 
6   -0.168815 
7   -0.145245 
8   0.048829 
9   0.25848 
10   0.56287 
11   -0.376592 
12   -0.050544 
13   -0.195837 
14   -0.493731 
15   -0.438154 
16   0.154199 
17   0.168899 
18   0.199708 
19   0.161977 
20   0.187266 
21   0.158963 
22   0.156772 
23   0.167372 
24   0.168877 
25   0.131936 
26   0.13261 
27   0.158859 
28   0.141284 
 
>  <lowdin_charges> 
28 
1   -0.366241 
2   -0.355278 
3   -0.279505 
4   -0.166086 
5   -0.140024 
6   -0.133436 
7   -0.173142 
8   -0.052528 
9   0.041267 
10   0.201325 
11   -0.163886 
12   -0.02909 
13   -0.037728 
14   -0.276597 
15   -0.179507 
16   0.15873 
17   0.15713 
18   0.17938 
19   0.156278 
20   0.175675 
21   0.150193 
22   0.156366 
23   0.158454 
24   0.158577 
25   0.159482 
26   0.157437 
27   0.175835 
28   0.166918 
 
$$$$ 
 
