PCCDB-ID:  54968 
public computational chemistry database (PCCDB) project, http://pccdb.org 
 
 25 25  0  0  0  0  0  0  0  0999 V2000 
    2.0937   -1.3127    1.1948 C   0  0  0  0  0  0  0  0  0  0  0  0 
    7.0718    4.6099    0.4086 C   0  0  0  0  0  0  0  0  0  0  0  0 
    6.3721    5.6265   -1.7402 C   0  0  0  0  0  0  0  0  0  0  0  0 
    4.8562    2.7299    0.0420 C   0  0  0  0  0  0  0  0  0  0  0  0 
    5.0808    3.8109   -0.7529 C   0  0  0  0  0  0  0  0  0  0  0  0 
    3.5053    0.7207    0.6374 C   0  0  0  0  0  0  0  0  0  0  0  0 
    1.8560    1.2720   -1.3587 C   0  0  0  0  0  0  0  0  0  0  0  0 
    2.4068   -0.0899    0.3723 C   0  0  0  0  0  0  0  0  0  0  0  0 
    3.7254    1.8485   -0.1786 C   0  0  0  0  0  0  0  0  0  0  0  0 
    1.5609    0.1832   -0.6432 N   0  0  0  0  0  0  0  0  0  0  0  0 
    2.8701    2.1175   -1.1960 N   0  0  0  0  0  0  0  0  0  0  0  0 
    6.0603    4.7506   -0.6226 N   0  0  0  0  0  0  0  0  0  0  0  0 
    2.8227   -1.4636    1.9966 H   0  0  0  0  0  0  0  0  0  0  0  0 
    2.0800   -2.2038    0.5570 H   0  0  0  0  0  0  0  0  0  0  0  0 
    1.0953   -1.2235    1.6379 H   0  0  0  0  0  0  0  0  0  0  0  0 
    7.6359    5.5430    0.4900 H   0  0  0  0  0  0  0  0  0  0  0  0 
    7.7770    3.7913    0.1951 H   0  0  0  0  0  0  0  0  0  0  0  0 
    6.5944    4.4100    1.3733 H   0  0  0  0  0  0  0  0  0  0  0  0 
    6.6548    6.6195   -1.3724 H   0  0  0  0  0  0  0  0  0  0  0  0 
    5.4899    5.7325   -2.3764 H   0  0  0  0  0  0  0  0  0  0  0  0 
    7.1979    5.2409   -2.3588 H   0  0  0  0  0  0  0  0  0  0  0  0 
    5.5179    2.4830    0.8664 H   0  0  0  0  0  0  0  0  0  0  0  0 
    4.3960    3.9764   -1.5807 H   0  0  0  0  0  0  0  0  0  0  0  0 
    4.1811    0.4925    1.4572 H   0  0  0  0  0  0  0  0  0  0  0  0 
    1.1770    1.4979   -2.1811 H   0  0  0  0  0  0  0  0  0  0  0  0 
  1 15  1  0  0  0  0 
  1 13  1  0  0  0  0 
  2 16  1  0  0  0  0 
  2 18  1  0  0  0  0 
  3 19  1  0  0  0  0 
  3 12  1  0  0  0  0 
  4 22  1  0  0  0  0 
  5 12  1  0  0  0  0 
  5  4  2  0  0  0  0 
  6 24  1  0  0  0  0 
  7 11  1  0  0  0  0 
  7 10  2  0  0  0  0 
  8  6  2  0  0  0  0 
  8  1  1  0  0  0  0 
  9  4  1  0  0  0  0 
  9  6  1  0  0  0  0 
 10  8  1  0  0  0  0 
 11  9  2  0  0  0  0 
 12  2  1  0  0  0  0 
 14  1  1  0  0  0  0 
 17  2  1  0  0  0  0 
 20  3  1  0  0  0  0 
 21  3  1  0  0  0  0 
 23  5  1  0  0  0  0 
 25  7  1  0  0  0  0 
M  END 
>  <HBA> 
3 
 
>  <HBD> 
0 
 
>  <TPSA> 
29.02 
 
>  <cid> 
54968 
 
>  <dipole> 
4.94 
 
>  <excitation_energy_1> 
4.025 
 
>  <excitation_energy_2> 
4.285 
 
>  <excitation_energy_3> 
4.424 
 
>  <excitation_energy_4> 
4.629 
 
>  <homo_energy> 
-5.2 
 
>  <homo_lumo_gap> 
4.419 
 
>  <logP> 
1.317 
 
>  <lumo_energy> 
-0.781 
 
>  <melting_point> 
64.0 
 
>  <molecular_refractivity> 
49.6 
 
>  <oscillator_strength_1> 
0.4903 
 
>  <oscillator_strength_2> 
0.0054 
 
>  <oscillator_strength_3> 
0.2173 
 
>  <oscillator_strength_4> 
0.0366 
 
>  <open_babel_can_smiles> 
CN(/C=C/c1ncnc(c1)C)C 
 
>  <mulliken_charges> 
25 
1   -0.507239 
2   -0.310823 
3   -0.312072 
4   -0.255527 
5   0.090649 
6   -0.224773 
7   0.164209 
8   0.310731 
9   0.34877 
10   -0.458521 
11   -0.493309 
12   -0.369447 
13   0.146908 
14   0.172573 
15   0.172752 
16   0.159092 
17   0.158006 
18   0.173501 
19   0.159558 
20   0.173422 
21   0.156926 
22   0.113269 
23   0.174399 
24   0.121224 
25   0.135723 
 
>  <lowdin_charges> 
25 
1   -0.444987 
2   -0.352303 
3   -0.346492 
4   -0.277644 
5   -0.064049 
6   -0.227088 
7   -0.041635 
8   0.07619 
9   0.086311 
10   -0.197241 
11   -0.197242 
12   -0.083471 
13   0.153445 
14   0.170337 
15   0.169636 
16   0.159353 
17   0.148464 
18   0.162973 
19   0.152932 
20   0.16611 
21   0.14612 
22   0.15332 
23   0.176962 
24   0.158112 
25   0.151889 
 
$$$$ 
 
