PCCDB-ID:  23166 
public computational chemistry database (PCCDB) project, http://pccdb.org 
 
 31 30  0  0  0  0  0  0  0  0999 V2000 
    0.0125    1.4719    1.1452 C   0  0  0  0  0  0  0  0  0  0  0  0 
   11.6769    2.3957    1.0417 C   0  0  0  0  0  0  0  0  0  0  0  0 
    1.4691    1.0626    1.3850 C   0  0  0  0  0  0  0  0  0  0  0  0 
    2.4546    1.7467    0.4288 C   0  0  0  0  0  0  0  0  0  0  0  0 
    3.9153    1.3413    0.6622 C   0  0  0  0  0  0  0  0  0  0  0  0 
    4.8992    2.0291   -0.2935 C   0  0  0  0  0  0  0  0  0  0  0  0 
    6.3581    1.6177   -0.0511 C   0  0  0  0  0  0  0  0  0  0  0  0 
    7.3116    2.3100   -1.0184 C   0  0  0  0  0  0  0  0  0  0  0  0 
   11.1469    0.7826   -0.6886 C   0  0  0  0  0  0  0  0  0  0  0  0 
   10.7983    1.8801    0.1674 C   0  0  0  0  0  0  0  0  0  0  0  0 
    9.4142    2.4691    0.0878 C   0  0  0  0  0  0  0  0  0  0  0  0 
   11.4479   -0.1076   -1.3733 N   0  0  0  0  0  0  0  0  0  0  0  0 
    9.0442    3.3921    0.7819 O   0  0  0  0  0  0  0  0  0  0  0  0 
    8.6756    1.8454   -0.8400 O   0  0  0  0  0  0  0  0  0  0  0  0 
   -0.6649    0.9691    1.8448 H   0  0  0  0  0  0  0  0  0  0  0  0 
   -0.3095    1.2160    0.1282 H   0  0  0  0  0  0  0  0  0  0  0  0 
   -0.1216    2.5534    1.2713 H   0  0  0  0  0  0  0  0  0  0  0  0 
   12.6849    2.0075    1.1368 H   0  0  0  0  0  0  0  0  0  0  0  0 
   11.3724    3.2254    1.6712 H   0  0  0  0  0  0  0  0  0  0  0  0 
    1.5646   -0.0279    1.2840 H   0  0  0  0  0  0  0  0  0  0  0  0 
    1.7495    1.2967    2.4218 H   0  0  0  0  0  0  0  0  0  0  0  0 
    2.3592    2.8381    0.5303 H   0  0  0  0  0  0  0  0  0  0  0  0 
    2.1731    1.5135   -0.6091 H   0  0  0  0  0  0  0  0  0  0  0  0 
    4.0119    0.2506    0.5584 H   0  0  0  0  0  0  0  0  0  0  0  0 
    4.1966    1.5739    1.6997 H   0  0  0  0  0  0  0  0  0  0  0  0 
    4.8046    3.1196   -0.1881 H   0  0  0  0  0  0  0  0  0  0  0  0 
    4.6191    1.7962   -1.3315 H   0  0  0  0  0  0  0  0  0  0  0  0 
    6.4666    0.5312   -0.1626 H   0  0  0  0  0  0  0  0  0  0  0  0 
    6.6504    1.8701    0.9755 H   0  0  0  0  0  0  0  0  0  0  0  0 
    7.2925    3.3952   -0.8897 H   0  0  0  0  0  0  0  0  0  0  0  0 
    7.0796    2.0610   -2.0568 H   0  0  0  0  0  0  0  0  0  0  0  0 
  1 17  1  0  0  0  0 
  1  3  1  0  0  0  0 
  1 15  1  0  0  0  0 
  2 18  1  0  0  0  0 
  2 19  1  0  0  0  0 
  3 21  1  0  0  0  0 
  4 22  1  0  0  0  0 
  4  5  1  0  0  0  0 
  4  3  1  0  0  0  0 
  5 25  1  0  0  0  0 
  6 26  1  0  0  0  0 
  6  7  1  0  0  0  0 
  6  5  1  0  0  0  0 
  7 29  1  0  0  0  0 
  8 30  1  0  0  0  0 
  8 14  1  0  0  0  0 
  8  7  1  0  0  0  0 
  9 10  1  0  0  0  0 
 10  2  2  0  0  0  0 
 11 10  1  0  0  0  0 
 11 13  2  0  0  0  0 
 12  9  3  0  0  0  0 
 14 11  1  0  0  0  0 
 16  1  1  0  0  0  0 
 20  3  1  0  0  0  0 
 23  4  1  0  0  0  0 
 24  5  1  0  0  0  0 
 27  6  1  0  0  0  0 
 28  7  1  0  0  0  0 
 31  8  1  0  0  0  0 
M  END 
>  <HBA> 
3 
 
>  <HBD> 
0 
 
>  <TPSA> 
50.09 
 
>  <cid> 
23166 
 
>  <dipole> 
2.66 
 
>  <excitation_energy_1> 
4.498 
 
>  <excitation_energy_2> 
5.338 
 
>  <excitation_energy_3> 
5.559 
 
>  <excitation_energy_4> 
5.837 
 
>  <homo_energy> 
-7.959 
 
>  <homo_lumo_gap> 
5.755 
 
>  <logP> 
2.58 
 
>  <lumo_energy> 
-2.204 
 
>  <melting_point> 
-0.72 
 
>  <molecular_refractivity> 
55.55 
 
>  <oscillator_strength_1> 
0.0001 
 
>  <oscillator_strength_2> 
0.0085 
 
>  <oscillator_strength_3> 
0.2357 
 
>  <oscillator_strength_4> 
0.0016 
 
>  <open_babel_can_smiles> 
CCCCCCCOC(=O)C(=C)C#N 
 
>  <mulliken_charges> 
31 
1   -0.441855 
2   -0.319123 
3   -0.247654 
4   -0.247513 
5   -0.25319 
6   -0.266223 
7   -0.282152 
8   -0.051768 
9   0.286684 
10   0.0923 
11   0.631841 
12   -0.472786 
13   -0.481261 
14   -0.467547 
15   0.143187 
16   0.141851 
17   0.141953 
18   0.190548 
19   0.20273 
20   0.131459 
21   0.131554 
22   0.128549 
23   0.127866 
24   0.131761 
25   0.132882 
26   0.137816 
27   0.132816 
28   0.151153 
29   0.159612 
30   0.17251 
31   0.162001 
 
>  <lowdin_charges> 
31 
1   -0.44314 
2   -0.22596 
3   -0.268638 
4   -0.271261 
5   -0.269629 
6   -0.270035 
7   -0.283842 
8   -0.123257 
9   -0.009621 
10   -0.046058 
11   0.199225 
12   -0.103047 
13   -0.260775 
14   -0.167641 
15   0.151349 
16   0.145773 
17   0.144786 
18   0.185063 
19   0.194052 
20   0.137293 
21   0.138293 
22   0.136107 
23   0.136692 
24   0.137881 
25   0.139426 
26   0.140386 
27   0.138917 
28   0.148762 
29   0.154197 
30   0.157996 
31   0.156706 
 
$$$$ 
 
