PCCDB-ID:  33370 
public computational chemistry database (PCCDB) project, http://pccdb.org 
 
 28 28  0  0  0  0  0  0  0  0999 V2000 
    1.1184   -0.0953   -0.4683 C   0  0  0  0  0  0  0  0  0  0  0  0 
    3.0354   -3.7098    0.3168 C   0  0  0  0  0  0  0  0  0  0  0  0 
    5.3791   -0.1951    0.2504 C   0  0  0  0  0  0  0  0  0  0  0  0 
    5.4886    2.3096   -0.0411 C   0  0  0  0  0  0  0  0  0  0  0  0 
    4.6388   -1.3731    0.2786 C   0  0  0  0  0  0  0  0  0  0  0  0 
    6.7904    2.5231    0.2511 C   0  0  0  0  0  0  0  0  0  0  0  0 
    3.3745    1.0396   -0.2390 C   0  0  0  0  0  0  0  0  0  0  0  0 
    2.6047   -0.1179   -0.2182 C   0  0  0  0  0  0  0  0  0  0  0  0 
    4.7649    1.0409   -0.0046 C   0  0  0  0  0  0  0  0  0  0  0  0 
    3.2577   -1.3406    0.0468 C   0  0  0  0  0  0  0  0  0  0  0  0 
    7.4308    3.8288    0.1468 C   0  0  0  0  0  0  0  0  0  0  0  0 
    8.5595    4.1768    0.6623 N   0  0  0  0  0  0  0  0  0  0  0  0 
    6.8014    4.8277   -0.5492 O   0  0  0  0  0  0  0  0  0  0  0  0 
    9.0823    3.1451    1.4757 O   0  0  0  0  0  0  0  0  0  0  0  0 
    2.4529   -2.4423    0.0527 O   0  0  0  0  0  0  0  0  0  0  0  0 
    0.7693    0.9255   -0.6501 H   0  0  0  0  0  0  0  0  0  0  0  0 
    0.5648   -0.5026    0.3859 H   0  0  0  0  0  0  0  0  0  0  0  0 
    0.8504   -0.7115   -1.3347 H   0  0  0  0  0  0  0  0  0  0  0  0 
    2.2157   -4.4292    0.2743 H   0  0  0  0  0  0  0  0  0  0  0  0 
    3.4949   -3.7418    1.3131 H   0  0  0  0  0  0  0  0  0  0  0  0 
    3.7877   -3.9724   -0.4382 H   0  0  0  0  0  0  0  0  0  0  0  0 
    6.4494   -0.2464    0.4253 H   0  0  0  0  0  0  0  0  0  0  0  0 
    4.8763    3.1706   -0.3111 H   0  0  0  0  0  0  0  0  0  0  0  0 
    5.1436   -2.3114    0.4777 H   0  0  0  0  0  0  0  0  0  0  0  0 
    7.4338    1.7233    0.6000 H   0  0  0  0  0  0  0  0  0  0  0  0 
    2.8775    1.9870   -0.4395 H   0  0  0  0  0  0  0  0  0  0  0  0 
    6.3143    4.4141   -1.2797 H   0  0  0  0  0  0  0  0  0  0  0  0 
    9.9346    3.5241    1.7381 H   0  0  0  0  0  0  0  0  0  0  0  0 
  1  8  1  0  0  0  0 
  1 17  1  0  0  0  0 
  2 20  1  0  0  0  0 
  3  5  1  0  0  0  0 
  3 22  1  0  0  0  0 
  4  9  1  0  0  0  0 
  4  6  2  0  0  0  0 
  5 24  1  0  0  0  0 
  6 25  1  0  0  0  0 
  7  8  2  0  0  0  0 
  7  9  1  0  0  0  0 
  8 10  1  0  0  0  0 
  9  3  2  0  0  0  0 
 10 15  1  0  0  0  0 
 10  5  2  0  0  0  0 
 11  6  1  0  0  0  0 
 11 12  2  0  0  0  0 
 12 14  1  0  0  0  0 
 13 11  1  0  0  0  0 
 14 28  1  0  0  0  0 
 15  2  1  0  0  0  0 
 16  1  1  0  0  0  0 
 18  1  1  0  0  0  0 
 19  2  1  0  0  0  0 
 21  2  1  0  0  0  0 
 23  4  1  0  0  0  0 
 26  7  1  0  0  0  0 
 27 13  1  0  0  0  0 
M  END 
>  <HBA> 
4 
 
>  <HBD> 
2 
 
>  <TPSA> 
58.56 
 
>  <cid> 
33370 
 
>  <dipole> 
4.6 
 
>  <excitation_energy_1> 
3.827 
 
>  <excitation_energy_2> 
4.358 
 
>  <excitation_energy_3> 
4.468 
 
>  <excitation_energy_4> 
4.925 
 
>  <homo_energy> 
-5.453 
 
>  <homo_lumo_gap> 
4.03 
 
>  <logP> 
1.913 
 
>  <lumo_energy> 
-1.423 
 
>  <melting_point> 
139.6 
 
>  <molecular_refractivity> 
56.53 
 
>  <oscillator_strength_1> 
0.6926 
 
>  <oscillator_strength_2> 
0.0272 
 
>  <oscillator_strength_3> 
0.0216 
 
>  <oscillator_strength_4> 
0.0182 
 
>  <open_babel_can_smiles> 
O/N=C(\C=C\c1ccc(c(c1)C)OC)/O 
 
>  <mulliken_charges> 
28 
1   -0.514211 
2   -0.217354 
3   -0.194734 
4   -0.199923 
5   -0.192961 
6   -0.162558 
7   -0.267264 
8   0.132467 
9   0.189106 
10   0.327704 
11   0.487509 
12   -0.250117 
13   -0.603448 
14   -0.517877 
15   -0.504179 
16   0.149903 
17   0.168085 
18   0.166973 
19   0.173126 
20   0.156657 
21   0.155818 
22   0.136815 
23   0.129292 
24   0.136118 
25   0.166508 
26   0.124643 
27   0.404668 
28   0.419232 
 
>  <lowdin_charges> 
28 
1   -0.436949 
2   -0.277774 
3   -0.14156 
4   -0.143758 
5   -0.207249 
6   -0.202999 
7   -0.158892 
8   -0.021916 
9   -0.024324 
10   0.098147 
11   0.093882 
12   -0.093011 
13   -0.37543 
14   -0.387338 
15   -0.193059 
16   0.15469 
17   0.165474 
18   0.1646 
19   0.165431 
20   0.147329 
21   0.148399 
22   0.15989 
23   0.154677 
24   0.164466 
25   0.17722 
26   0.155858 
27   0.357606 
28   0.356593 
 
$$$$ 
 
