PCCDB-ID:  16848 
public computational chemistry database (PCCDB) project, http://pccdb.org 
 
 27 27  0  0  0  0  0  0  0  0999 V2000 
    3.6213   -1.5656    1.7913 C   0  0  0  0  0  0  0  0  0  0  0  0 
    1.3897    1.1169   -0.7598 C   0  0  0  0  0  0  0  0  0  0  0  0 
    5.6584    2.1369    1.6263 C   0  0  0  0  0  0  0  0  0  0  0  0 
    5.6907    4.5582    1.1727 C   0  0  0  0  0  0  0  0  0  0  0  0 
    5.0303    0.8927    1.6681 C   0  0  0  0  0  0  0  0  0  0  0  0 
    5.2237    5.7697    0.8121 C   0  0  0  0  0  0  0  0  0  0  0  0 
    3.6448    3.1357    0.7638 C   0  0  0  0  0  0  0  0  0  0  0  0 
    4.9836    3.2840    1.1839 C   0  0  0  0  0  0  0  0  0  0  0  0 
    3.6988    0.7627    1.2627 C   0  0  0  0  0  0  0  0  0  0  0  0 
    3.0045    1.9083    0.7943 C   0  0  0  0  0  0  0  0  0  0  0  0 
    6.1164    6.9510    0.8733 C   0  0  0  0  0  0  0  0  0  0  0  0 
    7.2729    6.9284    1.2316 O   0  0  0  0  0  0  0  0  0  0  0  0 
    5.5562    8.1363    0.4880 O   0  0  0  0  0  0  0  0  0  0  0  0 
    2.9886   -0.3962    1.2873 O   0  0  0  0  0  0  0  0  0  0  0  0 
    1.6811    1.8432    0.4379 O   0  0  0  0  0  0  0  0  0  0  0  0 
    4.4899   -1.8471    1.1825 H   0  0  0  0  0  0  0  0  0  0  0  0 
    2.8700   -2.3550    1.7389 H   0  0  0  0  0  0  0  0  0  0  0  0 
    3.9359   -1.4304    2.8336 H   0  0  0  0  0  0  0  0  0  0  0  0 
    1.6535    0.0596   -0.6628 H   0  0  0  0  0  0  0  0  0  0  0  0 
    1.9198    1.5522   -1.6174 H   0  0  0  0  0  0  0  0  0  0  0  0 
    0.3128    1.2131   -0.9138 H   0  0  0  0  0  0  0  0  0  0  0  0 
    6.6924    2.2192    1.9500 H   0  0  0  0  0  0  0  0  0  0  0  0 
    6.7299    4.5308    1.4983 H   0  0  0  0  0  0  0  0  0  0  0  0 
    5.5817    0.0308    2.0258 H   0  0  0  0  0  0  0  0  0  0  0  0 
    4.1974    5.9057    0.4755 H   0  0  0  0  0  0  0  0  0  0  0  0 
    3.0683    3.9844    0.4101 H   0  0  0  0  0  0  0  0  0  0  0  0 
    4.6297    7.9994    0.2321 H   0  0  0  0  0  0  0  0  0  0  0  0 
  1 18  1  0  0  0  0 
  2 19  1  0  0  0  0 
  2 15  1  0  0  0  0 
  3  5  1  0  0  0  0 
  3 22  1  0  0  0  0 
  4  8  1  0  0  0  0 
  4 23  1  0  0  0  0 
  5 24  1  0  0  0  0 
  6 11  1  0  0  0  0 
  6  4  2  0  0  0  0 
  7 10  2  0  0  0  0 
  7  8  1  0  0  0  0 
  8  3  2  0  0  0  0 
  9 14  1  0  0  0  0 
  9  5  2  0  0  0  0 
 10  9  1  0  0  0  0 
 11 12  2  0  0  0  0 
 13 11  1  0  0  0  0 
 14  1  1  0  0  0  0 
 15 10  1  0  0  0  0 
 16  1  1  0  0  0  0 
 17  1  1  0  0  0  0 
 20  2  1  0  0  0  0 
 21  2  1  0  0  0  0 
 25  6  1  0  0  0  0 
 26  7  1  0  0  0  0 
 27 13  1  0  0  0  0 
M  END 
>  <HBA> 
4 
 
>  <HBD> 
1 
 
>  <TPSA> 
55.76 
 
>  <cid> 
16848 
 
>  <dipole> 
6.68 
 
>  <excitation_energy_1> 
3.986 
 
>  <excitation_energy_2> 
4.327 
 
>  <excitation_energy_3> 
4.38 
 
>  <excitation_energy_4> 
5.037 
 
>  <homo_energy> 
-5.965 
 
>  <homo_lumo_gap> 
4.272 
 
>  <logP> 
1.802 
 
>  <lumo_energy> 
-1.693 
 
>  <melting_point> 
115.55 
 
>  <molecular_refractivity> 
56.1 
 
>  <oscillator_strength_1> 
0.5865 
 
>  <oscillator_strength_2> 
0.0014 
 
>  <oscillator_strength_3> 
0.1278 
 
>  <oscillator_strength_4> 
0.06 
 
>  <open_babel_can_smiles> 
COc1cc(/C=C/C(=O)O)ccc1OC 
 
>  <mulliken_charges> 
27 
1   -0.220974 
2   -0.213808 
3   -0.196799 
4   -0.151611 
5   -0.207238 
6   -0.249458 
7   -0.233043 
8   0.171876 
9   0.355465 
10   0.323369 
11   0.608225 
12   -0.466178 
13   -0.587232 
14   -0.500901 
15   -0.520129 
16   0.1581 
17   0.177181 
18   0.161649 
19   0.163663 
20   0.141641 
21   0.16312 
22   0.143324 
23   0.171555 
24   0.142582 
25   0.123085 
26   0.137784 
27   0.40475 
 
>  <lowdin_charges> 
27 
1   -0.276416 
2   -0.272166 
3   -0.1436 
4   -0.090762 
5   -0.20959 
6   -0.240882 
7   -0.163842 
8   -0.023038 
9   0.088611 
10   0.074554 
11   0.19018 
12   -0.257974 
13   -0.361231 
14   -0.184095 
15   -0.221964 
16   0.149327 
17   0.167662 
18   0.149872 
19   0.148574 
20   0.140712 
21   0.156756 
22   0.163541 
23   0.177541 
24   0.168114 
25   0.149168 
26   0.16835 
27   0.352597 
 
$$$$ 
 
