PCCDB-ID:  70613 
public computational chemistry database (PCCDB) project, http://pccdb.org 
 
 28 27  0  0  0  0  0  0  0  0999 V2000 
    5.4077    4.2351    1.0460 C   0  0  0  0  0  0  0  0  0  0  0  0 
    8.8024   -4.6089   -5.9189 C   0  0  0  0  0  0  0  0  0  0  0  0 
    5.6452    4.6386   -0.2046 C   0  0  0  0  0  0  0  0  0  0  0  0 
    7.7619   -3.8155   -5.6558 C   0  0  0  0  0  0  0  0  0  0  0  0 
    6.9792    1.0349   -2.4149 C   0  0  0  0  0  0  0  0  0  0  0  0 
    7.1102    0.0261   -3.5685 C   0  0  0  0  0  0  0  0  0  0  0  0 
    5.5449    1.5004   -2.1674 C   0  0  0  0  0  0  0  0  0  0  0  0 
    6.4664   -1.3281   -3.2730 C   0  0  0  0  0  0  0  0  0  0  0  0 
    5.7120    3.7422   -1.3850 C   0  0  0  0  0  0  0  0  0  0  0  0 
    7.7616   -2.9371   -4.4584 C   0  0  0  0  0  0  0  0  0  0  0  0 
    5.9432    4.1408   -2.5103 O   0  0  0  0  0  0  0  0  0  0  0  0 
    8.6559   -2.8572   -3.6394 O   0  0  0  0  0  0  0  0  0  0  0  0 
    5.4852    2.4427   -1.0744 O   0  0  0  0  0  0  0  0  0  0  0  0 
    6.6074   -2.2278   -4.3940 O   0  0  0  0  0  0  0  0  0  0  0  0 
    5.3741    4.9435    1.8689 H   0  0  0  0  0  0  0  0  0  0  0  0 
    5.2418    3.1890    1.2823 H   0  0  0  0  0  0  0  0  0  0  0  0 
    8.8201   -5.2584   -6.7888 H   0  0  0  0  0  0  0  0  0  0  0  0 
    9.6648   -4.6214   -5.2585 H   0  0  0  0  0  0  0  0  0  0  0  0 
    5.8121    5.6838   -0.4483 H   0  0  0  0  0  0  0  0  0  0  0  0 
    6.8836   -3.7765   -6.2931 H   0  0  0  0  0  0  0  0  0  0  0  0 
    7.5848    1.9166   -2.6492 H   0  0  0  0  0  0  0  0  0  0  0  0 
    7.3834    0.6052   -1.4890 H   0  0  0  0  0  0  0  0  0  0  0  0 
    8.1735   -0.1412   -3.7695 H   0  0  0  0  0  0  0  0  0  0  0  0 
    6.6714    0.4409   -4.4853 H   0  0  0  0  0  0  0  0  0  0  0  0 
    4.8942    0.6815   -1.8501 H   0  0  0  0  0  0  0  0  0  0  0  0 
    5.1280    1.9680   -3.0638 H   0  0  0  0  0  0  0  0  0  0  0  0 
    5.3860   -1.2479   -3.1292 H   0  0  0  0  0  0  0  0  0  0  0  0 
    6.9172   -1.7876   -2.3888 H   0  0  0  0  0  0  0  0  0  0  0  0 
  1 16  1  0  0  0  0 
  1 15  1  0  0  0  0 
  2  4  2  0  0  0  0 
  2 18  1  0  0  0  0 
  3  1  2  0  0  0  0 
  4 10  1  0  0  0  0 
  5  7  1  0  0  0  0 
  5 22  1  0  0  0  0 
  6  8  1  0  0  0  0 
  6  5  1  0  0  0  0 
  7 25  1  0  0  0  0 
  7 13  1  0  0  0  0 
  8 27  1  0  0  0  0 
  8 28  1  0  0  0  0 
  9 13  1  0  0  0  0 
  9  3  1  0  0  0  0 
 10 14  1  0  0  0  0 
 10 12  2  0  0  0  0 
 11  9  2  0  0  0  0 
 14  8  1  0  0  0  0 
 17  2  1  0  0  0  0 
 19  3  1  0  0  0  0 
 20  4  1  0  0  0  0 
 21  5  1  0  0  0  0 
 23  6  1  0  0  0  0 
 24  6  1  0  0  0  0 
 26  7  1  0  0  0  0 
M  END 
>  <HBA> 
4 
 
>  <HBD> 
0 
 
>  <TPSA> 
52.6 
 
>  <cid> 
70613 
 
>  <dipole> 
1.75 
 
>  <excitation_energy_1> 
4.716 
 
>  <excitation_energy_2> 
4.759 
 
>  <excitation_energy_3> 
5.8 
 
>  <excitation_energy_4> 
5.816 
 
>  <homo_energy> 
-7.44 
 
>  <homo_lumo_gap> 
6.161 
 
>  <logP> 
1.225 
 
>  <lumo_energy> 
-1.279 
 
>  <melting_point> 
-45.53 
 
>  <molecular_refractivity> 
51.81 
 
>  <oscillator_strength_1> 
0.0001 
 
>  <oscillator_strength_2> 
0.0002 
 
>  <oscillator_strength_3> 
0.019 
 
>  <oscillator_strength_4> 
0.0056 
 
>  <open_babel_can_smiles> 
C=CC(=O)OCCCCOC(=O)C=C 
 
>  <mulliken_charges> 
28 
1   -0.310507 
2   -0.30215 
3   -0.129694 
4   -0.133178 
5   -0.29106 
6   -0.292395 
7   -0.048071 
8   -0.046446 
9   0.611468 
10   0.608302 
11   -0.48795 
12   -0.492876 
13   -0.478888 
14   -0.477242 
15   0.159015 
16   0.175966 
17   0.158287 
18   0.18116 
19   0.159291 
20   0.154646 
21   0.17028 
22   0.14966 
23   0.170921 
24   0.150876 
25   0.149702 
26   0.170543 
27   0.150659 
28   0.169679 
 
>  <lowdin_charges> 
28 
1   -0.274238 
2   -0.264688 
3   -0.176252 
4   -0.187137 
5   -0.288163 
6   -0.286495 
7   -0.136071 
8   -0.133897 
9   0.194984 
10   0.196994 
11   -0.26786 
12   -0.274367 
13   -0.195554 
14   -0.191834 
15   0.17011 
16   0.174654 
17   0.169546 
18   0.180153 
19   0.173238 
20   0.170957 
21   0.164795 
22   0.150213 
23   0.163033 
24   0.150845 
25   0.15056 
26   0.159401 
27   0.148057 
28   0.159014 
 
$$$$ 
 
