PCCDB-ID:  46160 
public computational chemistry database (PCCDB) project, http://pccdb.org 
 
 37 37  0  0  0  0  0  0  0  0999 V2000 
    6.9439    6.7548   -3.1344 C   0  0  0  0  0  0  0  0  0  0  0  0 
    1.9715    8.4930    5.3522 C   0  0  0  0  0  0  0  0  0  0  0  0 
    6.0621    5.5659   -2.7390 C   0  0  0  0  0  0  0  0  0  0  0  0 
    5.7220    5.5333   -1.2427 C   0  0  0  0  0  0  0  0  0  0  0  0 
    4.8581    4.3271   -0.8491 C   0  0  0  0  0  0  0  0  0  0  0  0 
    4.3640    4.2883    0.6086 C   0  0  0  0  0  0  0  0  0  0  0  0 
    5.4603    4.1711    1.6901 C   0  0  0  0  0  0  0  0  0  0  0  0 
    5.9858    5.5085    2.2702 C   0  0  0  0  0  0  0  0  0  0  0  0 
    3.4029    8.1661    3.2850 C   0  0  0  0  0  0  0  0  0  0  0  0 
    4.3523    7.4451    2.5587 C   0  0  0  0  0  0  0  0  0  0  0  0 
    3.6263    6.5971    5.0857 C   0  0  0  0  0  0  0  0  0  0  0  0 
    3.0223    7.7464    4.5634 C   0  0  0  0  0  0  0  0  0  0  0  0 
    4.9586    6.2895    3.0607 C   0  0  0  0  0  0  0  0  0  0  0  0 
    4.5753    5.8826    4.3514 C   0  0  0  0  0  0  0  0  0  0  0  0 
    5.1808    4.7595    4.8608 O   0  0  0  0  0  0  0  0  0  0  0  0 
    7.1591    6.7553   -4.2092 H   0  0  0  0  0  0  0  0  0  0  0  0 
    7.9031    6.7308   -2.6025 H   0  0  0  0  0  0  0  0  0  0  0  0 
    6.4567    7.7075   -2.8921 H   0  0  0  0  0  0  0  0  0  0  0  0 
    2.0515    9.5749    5.1993 H   0  0  0  0  0  0  0  0  0  0  0  0 
    2.0579    8.2970    6.4262 H   0  0  0  0  0  0  0  0  0  0  0  0 
    0.9587    8.1978    5.0465 H   0  0  0  0  0  0  0  0  0  0  0  0 
    6.5659    4.6287   -3.0160 H   0  0  0  0  0  0  0  0  0  0  0  0 
    5.1292    5.5915   -3.3202 H   0  0  0  0  0  0  0  0  0  0  0  0 
    5.1989    6.4631   -0.9718 H   0  0  0  0  0  0  0  0  0  0  0  0 
    6.6573    5.5284   -0.6661 H   0  0  0  0  0  0  0  0  0  0  0  0 
    5.4209    3.4046   -1.0583 H   0  0  0  0  0  0  0  0  0  0  0  0 
    3.9796    4.2983   -1.5105 H   0  0  0  0  0  0  0  0  0  0  0  0 
    3.6918    3.4248    0.7006 H   0  0  0  0  0  0  0  0  0  0  0  0 
    3.7407    5.1699    0.8123 H   0  0  0  0  0  0  0  0  0  0  0  0 
    6.3141    3.6099    1.2837 H   0  0  0  0  0  0  0  0  0  0  0  0 
    5.0817    3.5775    2.5294 H   0  0  0  0  0  0  0  0  0  0  0  0 
    6.3651    6.1455    1.4637 H   0  0  0  0  0  0  0  0  0  0  0  0 
    6.8397    5.2801    2.9202 H   0  0  0  0  0  0  0  0  0  0  0  0 
    2.9592    9.0609    2.8555 H   0  0  0  0  0  0  0  0  0  0  0  0 
    4.6426    7.7938    1.5700 H   0  0  0  0  0  0  0  0  0  0  0  0 
    3.3573    6.2534    6.0848 H   0  0  0  0  0  0  0  0  0  0  0  0 
    4.8485    4.6077    5.7591 H   0  0  0  0  0  0  0  0  0  0  0  0 
  1 18  1  0  0  0  0 
  1  3  1  0  0  0  0 
  1 17  1  0  0  0  0 
  2 20  1  0  0  0  0 
  3  4  1  0  0  0  0 
  4 24  1  0  0  0  0 
  4  5  1  0  0  0  0 
  4 25  1  0  0  0  0 
  5  6  1  0  0  0  0 
  6 28  1  0  0  0  0 
  6 29  1  0  0  0  0 
  6  7  1  0  0  0  0 
  7  8  1  0  0  0  0 
  7 31  1  0  0  0  0 
  8 33  1  0  0  0  0 
  8 13  1  0  0  0  0 
  9 12  2  0  0  0  0 
 10 13  2  0  0  0  0 
 10  9  1  0  0  0  0 
 11 36  1  0  0  0  0 
 12 11  1  0  0  0  0 
 12  2  1  0  0  0  0 
 13 14  1  0  0  0  0 
 14 15  1  0  0  0  0 
 14 11  2  0  0  0  0 
 15 37  1  0  0  0  0 
 16  1  1  0  0  0  0 
 19  2  1  0  0  0  0 
 21  2  1  0  0  0  0 
 22  3  1  0  0  0  0 
 23  3  1  0  0  0  0 
 26  5  1  0  0  0  0 
 27  5  1  0  0  0  0 
 30  7  1  0  0  0  0 
 32  8  1  0  0  0  0 
 34  9  1  0  0  0  0 
 35 10  1  0  0  0  0 
M  END 
>  <HBA> 
1 
 
>  <HBD> 
1 
 
>  <TPSA> 
20.23 
 
>  <cid> 
46160 
 
>  <dipole> 
1.58 
 
>  <excitation_energy_1> 
4.929 
 
>  <excitation_energy_2> 
5.025 
 
>  <excitation_energy_3> 
5.579 
 
>  <excitation_energy_4> 
5.611 
 
>  <homo_energy> 
-5.723 
 
>  <homo_lumo_gap> 
5.916 
 
>  <logP> 
4.213 
 
>  <lumo_energy> 
0.193 
 
>  <melting_point> 
48.98 
 
>  <molecular_refractivity> 
67.24 
 
>  <oscillator_strength_1> 
0.0493 
 
>  <oscillator_strength_2> 
0.0016 
 
>  <oscillator_strength_3> 
0.039 
 
>  <oscillator_strength_4> 
0.0021 
 
>  <open_babel_can_smiles> 
CCCCCCCc1ccc(cc1O)C 
 
>  <mulliken_charges> 
37 
1   -0.441573 
2   -0.531104 
3   -0.246916 
4   -0.249689 
5   -0.254243 
6   -0.261209 
7   -0.26113 
8   -0.342837 
9   -0.181917 
10   -0.20191 
11   -0.247988 
12   0.176084 
13   0.143399 
14   0.300061 
15   -0.649181 
16   0.140643 
17   0.140701 
18   0.139954 
19   0.158813 
20   0.152124 
21   0.165086 
22   0.129805 
23   0.129437 
24   0.125071 
25   0.134177 
26   0.124873 
27   0.12412 
28   0.126398 
29   0.137791 
30   0.125534 
31   0.152279 
32   0.140851 
33   0.149948 
34   0.115578 
35   0.125006 
36   0.105354 
37   0.406611 
 
>  <lowdin_charges> 
37 
1   -0.442599 
2   -0.43728 
3   -0.272599 
4   -0.279064 
5   -0.275109 
6   -0.282929 
7   -0.27905 
8   -0.276213 
9   -0.191129 
10   -0.156736 
11   -0.224997 
12   0.00791 
13   -0.034599 
14   0.096515 
15   -0.382877 
16   0.146989 
17   0.145559 
18   0.145365 
19   0.157361 
20   0.153379 
21   0.160657 
22   0.138776 
23   0.138304 
24   0.135139 
25   0.139096 
26   0.135808 
27   0.138573 
28   0.142942 
29   0.144792 
30   0.139865 
31   0.152517 
32   0.148816 
33   0.156805 
34   0.153406 
35   0.154104 
36   0.14673 
37   0.355772 
 
$$$$ 
 
