PCCDB-ID:  68291 
public computational chemistry database (PCCDB) project, http://pccdb.org 
 
 18 19  0  0  0  0  0  0  0  0999 V2000 
   -2.4703   -0.5218   -0.2386 C   0  0  0  0  0  0  0  0  0  0  0  0 
   -1.8915    0.8667    0.1410 C   0  0  0  0  0  0  0  0  0  0  0  0 
   -1.3679   -1.5442    0.1459 C   0  0  0  0  0  0  0  0  0  0  0  0 
    0.6493    1.5637   -0.0003 C   0  0  0  0  0  0  0  0  0  0  0  0 
    1.9512    1.0562   -0.0633 C   0  0  0  0  0  0  0  0  0  0  0  0 
    1.2324   -1.1194   -0.0028 C   0  0  0  0  0  0  0  0  0  0  0  0 
   -0.3963    0.6477    0.0575 C   0  0  0  0  0  0  0  0  0  0  0  0 
   -0.1004   -0.7211    0.0587 C   0  0  0  0  0  0  0  0  0  0  0  0 
    2.2517   -0.2491   -0.0667 N   0  0  0  0  0  0  0  0  0  0  0  0 
   -2.6348   -0.5589   -1.3219 H   0  0  0  0  0  0  0  0  0  0  0  0 
   -3.4294   -0.7287    0.2455 H   0  0  0  0  0  0  0  0  0  0  0  0 
   -2.1728    1.1454    1.1671 H   0  0  0  0  0  0  0  0  0  0  0  0 
   -2.2471    1.6711   -0.5125 H   0  0  0  0  0  0  0  0  0  0  0  0 
   -1.3611   -2.4240   -0.5072 H   0  0  0  0  0  0  0  0  0  0  0  0 
   -1.5148   -1.9127    1.1716 H   0  0  0  0  0  0  0  0  0  0  0  0 
    0.4760    2.6368   -0.0081 H   0  0  0  0  0  0  0  0  0  0  0  0 
    2.7988    1.7380   -0.1181 H   0  0  0  0  0  0  0  0  0  0  0  0 
    1.5040   -2.1750   -0.0095 H   0  0  0  0  0  0  0  0  0  0  0  0 
  1  2  1  0  0  0  0 
  1  3  1  0  0  0  0 
  1 11  1  0  0  0  0 
  2 12  1  0  0  0  0 
  3 15  1  0  0  0  0 
  4  7  2  0  0  0  0 
  5  4  1  0  0  0  0 
  6  8  2  0  0  0  0 
  7  8  1  0  0  0  0 
  7  2  1  0  0  0  0 
  8  3  1  0  0  0  0 
  9  5  2  0  0  0  0 
  9  6  1  0  0  0  0 
 10  1  1  0  0  0  0 
 13  2  1  0  0  0  0 
 14  3  1  0  0  0  0 
 16  4  1  0  0  0  0 
 17  5  1  0  0  0  0 
 18  6  1  0  0  0  0 
M  END 
>  <HBA> 
1 
 
>  <HBD> 
0 
 
>  <TPSA> 
12.89 
 
>  <cid> 
68291 
 
>  <dipole> 
2.82 
 
>  <excitation_energy_1> 
4.896 
 
>  <excitation_energy_2> 
5.172 
 
>  <excitation_energy_3> 
5.315 
 
>  <excitation_energy_4> 
5.965 
 
>  <homo_energy> 
-6.678 
 
>  <homo_lumo_gap> 
6.275 
 
>  <logP> 
1.57 
 
>  <lumo_energy> 
-0.403 
 
>  <melting_point> 
49.41 
 
>  <molecular_refractivity> 
36.86 
 
>  <oscillator_strength_1> 
0.0038 
 
>  <oscillator_strength_2> 
0.0007 
 
>  <oscillator_strength_3> 
0.0279 
 
>  <oscillator_strength_4> 
0.0094 
 
>  <open_babel_can_smiles> 
c1ncc2c(c1)CCC2 
 
>  <mulliken_charges> 
18 
1   -0.283802 
2   -0.346543 
3   -0.350017 
4   -0.203225 
5   0.036173 
6   -0.02408 
7   0.151525 
8   0.117106 
9   -0.416124 
10   0.151785 
11   0.142232 
12   0.159281 
13   0.15426 
14   0.153814 
15   0.156541 
16   0.12975 
17   0.136972 
18   0.134354 
 
>  <lowdin_charges> 
18 
1   -0.272037 
2   -0.280641 
3   -0.277462 
4   -0.183406 
5   -0.093908 
6   -0.096573 
7   0.00924 
8   -0.034685 
9   -0.155292 
10   0.14764 
11   0.148781 
12   0.156037 
13   0.156891 
14   0.155764 
15   0.153397 
16   0.159051 
17   0.155542 
18   0.151662 
 
$$$$ 
 
