PCCDB-ID:  33416 
public computational chemistry database (PCCDB) project, http://pccdb.org 
 
 40 40  0  0  1  0  0  0  0  0999 V2000 
    2.8045    0.3339   -0.9812 C   0  0  0  0  0  0  0  0  0  0  0  0 
    0.6764    0.7991    0.3315 C   0  0  0  0  0  0  0  0  0  0  0  0 
    3.6323   -5.0999    1.2116 C   0  0  0  0  0  0  0  0  0  0  0  0 
    1.3153   -4.8623    2.2088 C   0  0  0  0  0  0  0  0  0  0  0  0 
    6.2206   -0.0640    5.7239 C   0  0  0  0  0  0  0  0  0  0  0  0 
    4.4985    1.2530    7.0384 C   0  0  0  0  0  0  0  0  0  0  0  0 
    2.2169    0.8377    0.3462 C   0  0  0  0  0  0  0  0  0  0  0  0 
    2.5416   -4.1177    1.6615 C   0  0  0  0  0  0  0  0  0  0  0  0 
    4.7271    0.2641    5.8898 C   0  0  0  0  0  0  0  0  0  0  0  0 
    2.7375    0.0172    1.5144 C   0  0  2  0  0  0  0  0  0  0  0  0 
    3.1074   -2.0051    2.5821 C   0  0  0  0  0  0  0  0  0  0  0  0 
    3.7483    0.1047    3.7323 C   0  0  0  0  0  0  0  0  0  0  0  0 
    3.0859   -3.2731    2.7209 N   0  0  0  0  0  0  0  0  0  0  0  0 
    4.1965    0.8543    4.6633 N   0  0  0  0  0  0  0  0  0  0  0  0 
    2.6527   -1.2745    1.4836 N   0  0  0  0  0  0  0  0  0  0  0  0 
    3.2518    0.7180    2.5705 N   0  0  0  0  0  0  0  0  0  0  0  0 
    3.6617   -1.2677    3.6577 N   0  0  0  0  0  0  0  0  0  0  0  0 
    2.4149    0.9281   -1.8151 H   0  0  0  0  0  0  0  0  0  0  0  0 
    2.5361   -0.7141   -1.1395 H   0  0  0  0  0  0  0  0  0  0  0  0 
    3.8973    0.4089   -0.9888 H   0  0  0  0  0  0  0  0  0  0  0  0 
    0.2907    1.4133   -0.4896 H   0  0  0  0  0  0  0  0  0  0  0  0 
    0.2547    1.1794    1.2687 H   0  0  0  0  0  0  0  0  0  0  0  0 
    0.3274   -0.2287    0.1927 H   0  0  0  0  0  0  0  0  0  0  0  0 
    3.2524   -5.7735    0.4338 H   0  0  0  0  0  0  0  0  0  0  0  0 
    3.9761   -5.7053    2.0583 H   0  0  0  0  0  0  0  0  0  0  0  0 
    4.4971   -4.5625    0.8072 H   0  0  0  0  0  0  0  0  0  0  0  0 
    0.8992   -5.5364    1.4501 H   0  0  0  0  0  0  0  0  0  0  0  0 
    0.5323   -4.1563    2.5066 H   0  0  0  0  0  0  0  0  0  0  0  0 
    1.5887   -5.4562    3.0887 H   0  0  0  0  0  0  0  0  0  0  0  0 
    6.6351   -0.4802    6.6495 H   0  0  0  0  0  0  0  0  0  0  0  0 
    6.7780    0.8452    5.4729 H   0  0  0  0  0  0  0  0  0  0  0  0 
    6.3835   -0.7906    4.9197 H   0  0  0  0  0  0  0  0  0  0  0  0 
    4.8754    0.8491    7.9851 H   0  0  0  0  0  0  0  0  0  0  0  0 
    3.4316    1.4704    7.1535 H   0  0  0  0  0  0  0  0  0  0  0  0 
    5.0146    2.1971    6.8307 H   0  0  0  0  0  0  0  0  0  0  0  0 
    2.5354    1.8789    0.4961 H   0  0  0  0  0  0  0  0  0  0  0  0 
    2.2298   -3.5178    0.7961 H   0  0  0  0  0  0  0  0  0  0  0  0 
    4.1949   -0.6691    6.1523 H   0  0  0  0  0  0  0  0  0  0  0  0 
    3.2996    1.7279    2.5693 H   0  0  0  0  0  0  0  0  0  0  0  0 
    3.9841   -1.8294    4.4334 H   0  0  0  0  0  0  0  0  0  0  0  0 
  1  7  1  0  0  0  0 
  2  7  1  0  0  0  0 
  2 22  1  0  0  0  0 
  3  8  1  0  0  0  0 
  3 25  1  0  0  0  0 
  4 28  1  0  0  0  0 
  4 29  1  0  0  0  0 
  5  9  1  0  0  0  0 
  5 30  1  0  0  0  0 
  6 34  1  0  0  0  0 
  6 33  1  0  0  0  0 
  7 36  1  0  0  0  0 
  8  4  1  0  0  0  0 
  8 13  1  0  0  0  0 
  9 38  1  0  0  0  0 
  9  6  1  0  0  0  0 
 10  7  1  1  0  0  0 
 10 16  1  0  0  0  0 
 11 13  1  0  0  0  0 
 11 17  1  0  0  0  0 
 12 14  2  0  0  0  0 
 14  9  1  0  0  0  0 
 15 10  1  0  0  0  0 
 15 11  2  0  0  0  0 
 16 12  1  0  0  0  0 
 17 12  1  0  0  0  0 
 17 40  1  0  0  0  0 
 18  1  1  0  0  0  0 
 19  1  1  0  0  0  0 
 20  1  1  0  0  0  0 
 21  2  1  0  0  0  0 
 23  2  1  0  0  0  0 
 24  3  1  0  0  0  0 
 26  3  1  0  0  0  0 
 27  4  1  0  0  0  0 
 31  5  1  0  0  0  0 
 32  5  1  0  0  0  0 
 35  6  1  0  0  0  0 
 37  8  1  0  0  0  0 
 39 16  1  0  0  0  0 
M  RAD  2  10   2  13   2 
M  END 
>  <HBA> 
5 
 
>  <HBD> 
2 
 
>  <TPSA> 
62.73 
 
>  <cid> 
33416 
 
>  <dipole> 
2.77 
 
>  <excitation_energy_1> 
4.699 
 
>  <excitation_energy_2> 
4.813 
 
>  <excitation_energy_3> 
4.875 
 
>  <excitation_energy_4> 
5.333 
 
>  <homo_energy> 
-5.962 
 
>  <homo_lumo_gap> 
5.336 
 
>  <logP> 
2.782 
 
>  <lumo_energy> 
-0.626 
 
>  <melting_point> 
120.8 
 
>  <molecular_refractivity> 
72.25 
 
>  <oscillator_strength_1> 
0.0629 
 
>  <oscillator_strength_2> 
0.0239 
 
>  <oscillator_strength_3> 
0.0925 
 
>  <oscillator_strength_4> 
0.0043 
 
>  <open_babel_can_smiles> 
CC([N]C1=N[C](N/C(=N/C(C)C)/N1)C(C)C)C 
 
>  <mulliken_charges> 
40 
1   -0.441631 
2   -0.44282 
3   -0.429665 
4   -0.430031 
5   -0.435709 
6   -0.428554 
7   -0.160051 
8   0.028002 
9   0.014555 
10   0.555224 
11   0.656213 
12   0.754339 
13   -0.505097 
14   -0.505612 
15   -0.531256 
16   -0.695108 
17   -0.718863 
18   0.145531 
19   0.180102 
20   0.150285 
21   0.151276 
22   0.149542 
23   0.17583 
24   0.130834 
25   0.144108 
26   0.139769 
27   0.131264 
28   0.139609 
29   0.144517 
30   0.141517 
31   0.153744 
32   0.142127 
33   0.133911 
34   0.146347 
35   0.148563 
36   0.127747 
37   0.137988 
38   0.104966 
39   0.347618 
40   0.348873 
 
>  <lowdin_charges> 
40 
1   -0.435762 
2   -0.437968 
3   -0.447446 
4   -0.447517 
5   -0.451821 
6   -0.441564 
7   -0.124678 
8   -0.055789 
9   -0.053968 
10   0.123261 
11   0.116028 
12   0.1346 
13   -0.236035 
14   -0.268127 
15   -0.229525 
16   -0.220896 
17   -0.256701 
18   0.15288 
19   0.166173 
20   0.151909 
21   0.155261 
22   0.152932 
23   0.164154 
24   0.145483 
25   0.150053 
26   0.149125 
27   0.145876 
28   0.149149 
29   0.149837 
30   0.150494 
31   0.155063 
32   0.148745 
33   0.145964 
34   0.151098 
35   0.152504 
36   0.139253 
37   0.137673 
38   0.117388 
39   0.300885 
40   0.30201 
 
$$$$ 
 
