PCCDB-ID:  10818 
public computational chemistry database (PCCDB) project, http://pccdb.org 
 
 18 18  0  0  0  0  0  0  0  0999 V2000 
    0.9733   -0.0093    0.0151 C   0  0  0  0  0  0  0  0  0  0  0  0 
    3.1924   -1.1844   -0.3224 C   0  0  0  0  0  0  0  0  0  0  0  0 
    3.1907    1.2118   -0.0646 C   0  0  0  0  0  0  0  0  0  0  0  0 
    4.5772   -1.1759   -0.4735 C   0  0  0  0  0  0  0  0  0  0  0  0 
    4.5774    1.2368   -0.2113 C   0  0  0  0  0  0  0  0  0  0  0  0 
    2.4776    0.0063   -0.1195 C   0  0  0  0  0  0  0  0  0  0  0  0 
    5.2610    0.0414   -0.4253 C   0  0  0  0  0  0  0  0  0  0  0  0 
    7.1841   -0.7039   -2.0422 O   0  0  0  0  0  0  0  0  0  0  0  0 
    7.4335    1.5155   -0.6767 O   0  0  0  0  0  0  0  0  0  0  0  0 
    7.0766    0.0721   -0.5482 S   0  0  3  0  0  0  0  0  0  0  0  0 
    0.6161   -0.9618    0.4197 H   0  0  0  0  0  0  0  0  0  0  0  0 
    0.4890    0.1328   -0.9603 H   0  0  0  0  0  0  0  0  0  0  0  0 
    0.6211    0.7932    0.6714 H   0  0  0  0  0  0  0  0  0  0  0  0 
    2.6556   -2.1293   -0.3628 H   0  0  0  0  0  0  0  0  0  0  0  0 
    2.6533    2.1431    0.0986 H   0  0  0  0  0  0  0  0  0  0  0  0 
    5.1181   -2.1037   -0.6391 H   0  0  0  0  0  0  0  0  0  0  0  0 
    5.1367    2.1665   -0.1673 H   0  0  0  0  0  0  0  0  0  0  0  0 
    6.6646   -0.1918   -2.6945 H   0  0  0  0  0  0  0  0  0  0  0  0 
  1 11  1  0  0  0  0 
  1 13  1  0  0  0  0 
  2  6  2  0  0  0  0 
  3 15  1  0  0  0  0 
  4  7  2  0  0  0  0 
  4  2  1  0  0  0  0 
  5 17  1  0  0  0  0 
  5  3  2  0  0  0  0 
  6  3  1  0  0  0  0 
  6  1  1  0  0  0  0 
  7  5  1  0  0  0  0 
  8 10  1  0  0  0  0 
  9 10  1  0  0  0  0 
 10  7  1  0  0  0  0 
 12  1  1  0  0  0  0 
 14  2  1  0  0  0  0 
 16  4  1  0  0  0  0 
 18  8  1  0  0  0  0 
M  RAD  1   9   2 
M  END 
>  <HBA> 
2 
 
>  <HBD> 
1 
 
>  <TPSA> 
56.51 
 
>  <cid> 
10818 
 
>  <dipole> 
4.42 
 
>  <excitation_energy_1> 
4.68 
 
>  <excitation_energy_2> 
5.087 
 
>  <excitation_energy_3> 
5.412 
 
>  <excitation_energy_4> 
5.469 
 
>  <homo_energy> 
-6.727 
 
>  <homo_lumo_gap> 
5.687 
 
>  <logP> 
2.441 
 
>  <lumo_energy> 
-1.039 
 
>  <melting_point> 
83.31 
 
>  <molecular_refractivity> 
40.58 
 
>  <oscillator_strength_1> 
0.0333 
 
>  <oscillator_strength_2> 
0.0032 
 
>  <oscillator_strength_3> 
0.0856 
 
>  <oscillator_strength_4> 
0.1174 
 
>  <open_babel_can_smiles> 
O[S](c1ccc(cc1)C)[O] 
 
>  <mulliken_charges> 
18 
1   -0.530572 
2   -0.171653 
3   -0.170915 
4   -0.140261 
5   -0.140577 
6   0.178283 
7   -0.198416 
8   -0.66058 
9   -0.57724 
10   0.896814 
11   0.162424 
12   0.17261 
13   0.16422 
14   0.134277 
15   0.13496 
16   0.157215 
17   0.180079 
18   0.409332 
 
>  <lowdin_charges> 
18 
1   -0.443235 
2   -0.162723 
3   -0.161065 
4   -0.147028 
5   -0.144537 
6   0.015292 
7   -0.205086 
8   -0.606394 
9   -0.622929 
10   0.956649 
11   0.161312 
12   0.166256 
13   0.163255 
14   0.160484 
15   0.161061 
16   0.171849 
17   0.182671 
18   0.354168 
 
$$$$ 
 
