PCCDB-ID:  35806 
public computational chemistry database (PCCDB) project, http://pccdb.org 
 
 31 31  0  0  0  0  0  0  0  0999 V2000 
    0.6480   -0.4255   -0.2170 C   0  0  0  0  0  0  0  0  0  0  0  0 
    2.6263    1.0978    0.2021 C   0  0  0  0  0  0  0  0  0  0  0  0 
    2.1224   -0.1815   -0.0273 C   0  0  0  0  0  0  0  0  0  0  0  0 
    4.0154    1.1912    0.3655 C   0  0  0  0  0  0  0  0  0  0  0  0 
    4.2162    4.7583    0.4324 C   0  0  0  0  0  0  0  0  0  0  0  0 
    6.8020   -2.7159   -1.3715 C   0  0  0  0  0  0  0  0  0  0  0  0 
    4.2267   -1.0414    0.0785 C   0  0  0  0  0  0  0  0  0  0  0  0 
    3.9358    5.7892    1.1404 N   0  0  0  0  0  0  0  0  0  0  0  0 
    4.7696    4.6977   -0.8361 N   0  0  0  0  0  0  0  0  0  0  0  0 
    5.9573   -3.2707   -2.1576 N   0  0  0  0  0  0  0  0  0  0  0  0 
    8.1973   -2.6809   -1.4657 N   0  0  0  0  0  0  0  0  0  0  0  0 
    2.9155   -1.2624   -0.0970 N   0  0  0  0  0  0  0  0  0  0  0  0 
    4.8273    0.1292    0.3222 N   0  0  0  0  0  0  0  0  0  0  0  0 
    4.6726    2.4017    0.5550 N   0  0  0  0  0  0  0  0  0  0  0  0 
    3.9562    3.5012    1.0072 N   0  0  0  0  0  0  0  0  0  0  0  0 
    6.3652   -2.0835   -0.2018 N   0  0  0  0  0  0  0  0  0  0  0  0 
    5.0021   -2.1939    0.0825 N   0  0  0  0  0  0  0  0  0  0  0  0 
    0.0716    0.5027   -0.1670 H   0  0  0  0  0  0  0  0  0  0  0  0 
    0.2784   -1.1130    0.5521 H   0  0  0  0  0  0  0  0  0  0  0  0 
    0.4674   -0.9046   -1.1857 H   0  0  0  0  0  0  0  0  0  0  0  0 
    1.9914    1.9722    0.2563 H   0  0  0  0  0  0  0  0  0  0  0  0 
    4.0923    6.6516    0.6178 H   0  0  0  0  0  0  0  0  0  0  0  0 
    4.6195    5.5153   -1.4108 H   0  0  0  0  0  0  0  0  0  0  0  0 
    4.6628    3.8159   -1.3224 H   0  0  0  0  0  0  0  0  0  0  0  0 
    6.4022   -3.6145   -3.0086 H   0  0  0  0  0  0  0  0  0  0  0  0 
    8.5567   -2.9967   -2.3578 H   0  0  0  0  0  0  0  0  0  0  0  0 
    8.6068   -1.7946   -1.1883 H   0  0  0  0  0  0  0  0  0  0  0  0 
    5.6286    2.2915    0.8879 H   0  0  0  0  0  0  0  0  0  0  0  0 
    3.8377    3.5767    2.0150 H   0  0  0  0  0  0  0  0  0  0  0  0 
    6.9373   -2.3008    0.6081 H   0  0  0  0  0  0  0  0  0  0  0  0 
    4.5624   -2.9646   -0.4173 H   0  0  0  0  0  0  0  0  0  0  0  0 
  1 18  1  0  0  0  0 
  1  3  1  0  0  0  0 
  1 19  1  0  0  0  0 
  2 21  1  0  0  0  0 
  2  4  1  0  0  0  0 
  3  2  2  0  0  0  0 
  4 14  1  0  0  0  0 
  5 15  1  0  0  0  0 
  5  8  1  0  0  0  0 
  6 16  1  0  0  0  0 
  7 17  1  0  0  0  0 
  7 13  1  0  0  0  0 
  9  5  2  0  0  0  0 
 10  6  1  0  0  0  0 
 11  6  2  0  0  0  0 
 11 27  1  0  0  0  0 
 12  3  1  0  0  0  0 
 12  7  2  0  0  0  0 
 13  4  2  0  0  0  0 
 14 28  1  0  0  0  0 
 14 15  1  0  0  0  0 
 15 29  1  0  0  0  0 
 16 17  1  0  0  0  0 
 16 30  1  0  0  0  0 
 20  1  1  0  0  0  0 
 22  8  1  0  0  0  0 
 23  9  1  0  0  0  0 
 24  9  1  0  0  0  0 
 25 10  1  0  0  0  0 
 26 11  1  0  0  0  0 
 31 17  1  0  0  0  0 
M  RAD  2   8   2  10   2 
M  END 
>  <HBA> 
10 
 
>  <HBD> 
6 
 
>  <TPSA> 
178.64 
 
>  <cid> 
35806 
 
>  <dipole> 
4.34 
 
>  <excitation_energy_1> 
4.691 
 
>  <excitation_energy_2> 
4.932 
 
>  <excitation_energy_3> 
5.025 
 
>  <excitation_energy_4> 
5.238 
 
>  <homo_energy> 
-5.72 
 
>  <homo_lumo_gap> 
5.486 
 
>  <logP> 
0.933 
 
>  <lumo_energy> 
-0.234 
 
>  <melting_point> 
362.0 
 
>  <molecular_refractivity> 
63.81 
 
>  <oscillator_strength_1> 
0.0952 
 
>  <oscillator_strength_2> 
0.0103 
 
>  <oscillator_strength_3> 
0.0102 
 
>  <oscillator_strength_4> 
0.0041 
 
>  <open_babel_can_smiles> 
[NH]C(=[NH2])NNc1cc(C)nc(n1)NNC(=[NH2])[NH] 
 
>  <mulliken_charges> 
31 
1   -0.510244 
2   -0.231663 
3   0.326237 
4   0.524981 
5   0.597367 
6   0.584999 
7   0.665433 
8   -0.656345 
9   -0.747029 
10   -0.643802 
11   -0.757862 
12   -0.540257 
13   -0.557539 
14   -0.533012 
15   -0.447806 
16   -0.444902 
17   -0.510776 
18   0.151093 
19   0.173766 
20   0.174433 
21   0.146835 
22   0.269744 
23   0.326647 
24   0.344542 
25   0.274741 
26   0.324997 
27   0.33335 
28   0.330378 
29   0.336923 
30   0.338678 
31   0.35609 
 
>  <lowdin_charges> 
31 
1   -0.444984 
2   -0.273676 
3   0.090593 
4   0.115932 
5   0.126908 
6   0.121571 
7   0.132632 
8   -0.485107 
9   -0.49939 
10   -0.472658 
11   -0.505322 
12   -0.221513 
13   -0.22693 
14   -0.221436 
15   -0.234451 
16   -0.231072 
17   -0.21758 
18   0.155221 
19   0.172007 
20   0.171098 
21   0.173599 
22   0.250898 
23   0.283454 
24   0.290017 
25   0.25466 
26   0.279429 
27   0.284339 
28   0.276624 
29   0.2795 
30   0.282915 
31   0.292721 
 
$$$$ 
 
