PCCDB-ID:  52856 
public computational chemistry database (PCCDB) project, http://pccdb.org 
 
 28 29  0  0  1  0  0  0  0  0999 V2000 
    0.8954    0.0444    0.1475 C   0  0  0  0  0  0  0  0  0  0  0  0 
    3.1398   -1.1338    0.1174 C   0  0  0  0  0  0  0  0  0  0  0  0 
    3.0744    1.2070   -0.4208 C   0  0  0  0  0  0  0  0  0  0  0  0 
    4.5204   -1.1407   -0.0882 C   0  0  0  0  0  0  0  0  0  0  0  0 
    4.4501    1.2040   -0.6276 C   0  0  0  0  0  0  0  0  0  0  0  0 
    8.3379    0.2478   -2.3448 C   0  0  0  0  0  0  0  0  0  0  0  0 
    8.7013    1.0126   -0.0124 C   0  0  0  0  0  0  0  0  0  0  0  0 
    2.3936    0.0378   -0.0478 C   0  0  0  0  0  0  0  0  0  0  0  0 
    5.1876    0.0258   -0.4627 C   0  0  0  0  0  0  0  0  0  0  0  0 
    9.0672    1.2789   -1.4769 C   0  0  2  0  0  0  0  0  0  0  0  0 
    6.6753    0.0175   -0.6906 C   0  0  1  0  0  0  0  0  0  0  0  0 
    8.7159    2.6004   -1.8573 O   0  0  0  0  0  0  0  0  0  0  0  0 
    6.9351    0.2884   -2.0603 O   0  0  0  0  0  0  0  0  0  0  0  0 
    7.2777    0.9993    0.1368 O   0  0  0  0  0  0  0  0  0  0  0  0 
    0.5669   -0.8010    0.7608 H   0  0  0  0  0  0  0  0  0  0  0  0 
    0.3688   -0.0243   -0.8139 H   0  0  0  0  0  0  0  0  0  0  0  0 
    0.5581    0.9666    0.6337 H   0  0  0  0  0  0  0  0  0  0  0  0 
    2.6373   -2.0519    0.4131 H   0  0  0  0  0  0  0  0  0  0  0  0 
    2.5159    2.1319   -0.5478 H   0  0  0  0  0  0  0  0  0  0  0  0 
    5.0806   -2.0629    0.0488 H   0  0  0  0  0  0  0  0  0  0  0  0 
    4.9604    2.1199   -0.9088 H   0  0  0  0  0  0  0  0  0  0  0  0 
    8.7317   -0.7662   -2.1631 H   0  0  0  0  0  0  0  0  0  0  0  0 
    8.4450    0.4876   -3.4053 H   0  0  0  0  0  0  0  0  0  0  0  0 
    9.0712    1.8141    0.6313 H   0  0  0  0  0  0  0  0  0  0  0  0 
    9.1259    0.0533    0.3282 H   0  0  0  0  0  0  0  0  0  0  0  0 
   10.1511    1.1929   -1.6160 H   0  0  0  0  0  0  0  0  0  0  0  0 
    7.1056   -0.9703   -0.4405 H   0  0  0  0  0  0  0  0  0  0  0  0 
    7.7526    2.6581   -1.7408 H   0  0  0  0  0  0  0  0  0  0  0  0 
  1 17  1  0  0  0  0 
  1 15  1  0  0  0  0 
  2 18  1  0  0  0  0 
  3  8  2  0  0  0  0 
  4 20  1  0  0  0  0 
  4  2  2  0  0  0  0 
  5  9  2  0  0  0  0 
  5  3  1  0  0  0  0 
  6 22  1  0  0  0  0 
  6 13  1  0  0  0  0 
  6 10  1  0  0  0  0 
  7 14  1  0  0  0  0 
  7 25  1  0  0  0  0 
  7 24  1  0  0  0  0 
  8  2  1  0  0  0  0 
  8  1  1  0  0  0  0 
  9  4  1  0  0  0  0 
 10 26  1  6  0  0  0 
 10  7  1  0  0  0  0 
 11  9  1  0  0  0  0 
 11 27  1  1  0  0  0 
 11 14  1  0  0  0  0 
 12 28  1  0  0  0  0 
 12 10  1  0  0  0  0 
 13 11  1  0  0  0  0 
 16  1  1  0  0  0  0 
 19  3  1  0  0  0  0 
 21  5  1  0  0  0  0 
 23  6  1  0  0  0  0 
M  END 
>  <HBA> 
3 
 
>  <HBD> 
1 
 
>  <TPSA> 
38.69 
 
>  <cid> 
52856 
 
>  <dipole> 
1.91 
 
>  <excitation_energy_1> 
5.243 
 
>  <excitation_energy_2> 
5.796 
 
>  <excitation_energy_3> 
5.946 
 
>  <excitation_energy_4> 
6.092 
 
>  <homo_energy> 
-6.514 
 
>  <homo_lumo_gap> 
6.357 
 
>  <logP> 
1.401 
 
>  <lumo_energy> 
-0.158 
 
>  <melting_point> 
33.29 
 
>  <molecular_refractivity> 
52.01 
 
>  <oscillator_strength_1> 
0.0001 
 
>  <oscillator_strength_2> 
0.0922 
 
>  <oscillator_strength_3> 
0.0016 
 
>  <oscillator_strength_4> 
0.0006 
 
>  <open_babel_can_smiles> 
O[C@@H]1CO[C@@H](OC1)c1ccc(cc1)C 
 
>  <mulliken_charges> 
28 
1   -0.530632 
2   -0.184204 
3   -0.183141 
4   -0.181155 
5   -0.146688 
6   -0.056576 
7   -0.055166 
8   0.182636 
9   0.155049 
10   0.104611 
11   0.267993 
12   -0.622606 
13   -0.482519 
14   -0.484531 
15   0.156503 
16   0.167431 
17   0.159947 
18   0.123167 
19   0.124703 
20   0.127656 
21   0.134257 
22   0.123041 
23   0.16605 
24   0.165969 
25   0.123028 
26   0.13918 
27   0.106296 
28   0.399698 
 
>  <lowdin_charges> 
28 
1   -0.443456 
2   -0.168806 
3   -0.164902 
4   -0.155945 
5   -0.138852 
6   -0.149207 
7   -0.151859 
8   0.007525 
9   -0.017438 
10   -0.031271 
11   0.099531 
12   -0.455754 
13   -0.269662 
14   -0.26734 
15   0.158514 
16   0.162984 
17   0.160115 
18   0.155641 
19   0.156058 
20   0.156527 
21   0.161669 
22   0.131443 
23   0.16 
24   0.162869 
25   0.132166 
26   0.149235 
27   0.118717 
28   0.3415 
 
$$$$ 
 
