PCCDB-ID:  31234 
public computational chemistry database (PCCDB) project, http://pccdb.org 
 
 22 22  0  0  0  0  0  0  0  0999 V2000 
   -2.1474   -2.5460    0.2022 C   0  0  0  0  0  0  0  0  0  0  0  0 
   -1.4559   -2.8217   -0.9797 C   0  0  0  0  0  0  0  0  0  0  0  0 
   -1.5083   -1.8425    1.2234 C   0  0  0  0  0  0  0  0  0  0  0  0 
    2.9949   -2.3956   -0.1866 C   0  0  0  0  0  0  0  0  0  0  0  0 
   -0.1361   -2.3983   -1.1338 C   0  0  0  0  0  0  0  0  0  0  0  0 
   -0.1866   -1.4207    1.0634 C   0  0  0  0  0  0  0  0  0  0  0  0 
    1.9618   -1.2526   -0.2891 C   0  0  0  0  0  0  0  0  0  0  0  0 
    3.0898   -3.0258    1.2044 C   0  0  0  0  0  0  0  0  0  0  0  0 
    0.5215   -1.6941   -0.1140 C   0  0  0  0  0  0  0  0  0  0  0  0 
    4.0990   -4.0282    1.2810 O   0  0  0  0  0  0  0  0  0  0  0  0 
   -3.1768   -2.8724    0.3229 H   0  0  0  0  0  0  0  0  0  0  0  0 
   -1.9475   -3.3617   -1.7850 H   0  0  0  0  0  0  0  0  0  0  0  0 
   -2.0382   -1.6181    2.1456 H   0  0  0  0  0  0  0  0  0  0  0  0 
    3.9873   -2.0157   -0.4594 H   0  0  0  0  0  0  0  0  0  0  0  0 
    2.7435   -3.1770   -0.9194 H   0  0  0  0  0  0  0  0  0  0  0  0 
    0.3913   -2.6106   -2.0619 H   0  0  0  0  0  0  0  0  0  0  0  0 
    0.3023   -0.8684    1.8630 H   0  0  0  0  0  0  0  0  0  0  0  0 
    2.0769   -0.7742   -1.2703 H   0  0  0  0  0  0  0  0  0  0  0  0 
    2.2025   -0.4837    0.4568 H   0  0  0  0  0  0  0  0  0  0  0  0 
    2.1111   -3.4225    1.5146 H   0  0  0  0  0  0  0  0  0  0  0  0 
    3.3786   -2.2660    1.9399 H   0  0  0  0  0  0  0  0  0  0  0  0 
    3.8287   -4.7555    0.6992 H   0  0  0  0  0  0  0  0  0  0  0  0 
  1 11  1  0  0  0  0 
  1  3  2  0  0  0  0 
  2  1  1  0  0  0  0 
  3 13  1  0  0  0  0 
  4  8  1  0  0  0  0 
  5  2  2  0  0  0  0 
  5  9  1  0  0  0  0 
  6  3  1  0  0  0  0 
  6 17  1  0  0  0  0 
  7  4  1  0  0  0  0 
  7  9  1  0  0  0  0 
  7 19  1  0  0  0  0 
  8 10  1  0  0  0  0 
  8 20  1  0  0  0  0 
  8 21  1  0  0  0  0 
  9  6  2  0  0  0  0 
 12  2  1  0  0  0  0 
 14  4  1  0  0  0  0 
 15  4  1  0  0  0  0 
 16  5  1  0  0  0  0 
 18  7  1  0  0  0  0 
 22 10  1  0  0  0  0 
M  END 
>  <HBA> 
1 
 
>  <HBD> 
1 
 
>  <TPSA> 
20.23 
 
>  <cid> 
31234 
 
>  <dipole> 
1.63 
 
>  <excitation_energy_1> 
5.269 
 
>  <excitation_energy_2> 
5.801 
 
>  <excitation_energy_3> 
6.007 
 
>  <excitation_energy_4> 
6.183 
 
>  <homo_energy> 
-6.474 
 
>  <homo_lumo_gap> 
6.436 
 
>  <logP> 
1.611 
 
>  <lumo_energy> 
-0.038 
 
>  <melting_point> 
24.44 
 
>  <molecular_refractivity> 
42.18 
 
>  <oscillator_strength_1> 
0.0014 
 
>  <oscillator_strength_2> 
0.051 
 
>  <oscillator_strength_3> 
0.0018 
 
>  <oscillator_strength_4> 
0.0132 
 
>  <open_babel_can_smiles> 
OCCCc1ccccc1 
 
>  <mulliken_charges> 
22 
1   -0.132092 
2   -0.127771 
3   -0.12614 
4   -0.272327 
5   -0.182583 
6   -0.187356 
7   -0.358192 
8   -0.030216 
9   0.175387 
10   -0.616194 
11   0.128558 
12   0.128597 
13   0.129466 
14   0.14739 
15   0.125402 
16   0.122538 
17   0.12397 
18   0.14931 
19   0.142474 
20   0.133116 
21   0.140865 
22   0.385798 
 
>  <lowdin_charges> 
22 
1   -0.159904 
2   -0.155892 
3   -0.155157 
4   -0.29133 
5   -0.169148 
6   -0.171589 
7   -0.275309 
8   -0.139795 
9   -0.00297 
10   -0.469432 
11   0.156072 
12   0.158061 
13   0.157795 
14   0.149702 
15   0.137582 
16   0.153646 
17   0.1555 
18   0.154895 
19   0.149343 
20   0.132222 
21   0.144615 
22   0.341091 
 
$$$$ 
 
