PCCDB-ID:  18204 
public computational chemistry database (PCCDB) project, http://pccdb.org 
 
 31 30  0  0  0  0  0  0  0  0999 V2000 
    2.0865    1.3266    4.3945 C   0  0  0  0  0  0  0  0  0  0  0  0 
    3.9942    2.7433    4.0020 C   0  0  0  0  0  0  0  0  0  0  0  0 
    6.5848   -4.1142    1.3184 C   0  0  0  0  0  0  0  0  0  0  0  0 
    4.3068   -3.4649    1.6894 C   0  0  0  0  0  0  0  0  0  0  0  0 
    4.2874    0.4340    4.7273 C   0  0  0  0  0  0  0  0  0  0  0  0 
    6.1168   -1.9903    2.3652 C   0  0  0  0  0  0  0  0  0  0  0  0 
    5.7696    0.3953    4.3278 C   0  0  0  0  0  0  0  0  0  0  0  0 
    5.4413   -0.6279    2.1566 C   0  0  0  0  0  0  0  0  0  0  0  0 
    3.4777    1.3816    3.9721 N   0  0  0  0  0  0  0  0  0  0  0  0 
    5.6569   -2.9941    1.4053 N   0  0  0  0  0  0  0  0  0  0  0  0 
    6.0400    0.4016    2.9357 O   0  0  0  0  0  0  0  0  0  0  0  0 
    1.4817    1.9840    3.7603 H   0  0  0  0  0  0  0  0  0  0  0  0 
    1.9343    1.6347    5.4490 H   0  0  0  0  0  0  0  0  0  0  0  0 
    1.7054    0.3046    4.2854 H   0  0  0  0  0  0  0  0  0  0  0  0 
    3.3289    3.3907    3.4207 H   0  0  0  0  0  0  0  0  0  0  0  0 
    4.9821    2.7772    3.5363 H   0  0  0  0  0  0  0  0  0  0  0  0 
    4.0653    3.1635    5.0259 H   0  0  0  0  0  0  0  0  0  0  0  0 
    6.2406   -4.8168    0.5512 H   0  0  0  0  0  0  0  0  0  0  0  0 
    6.6885   -4.6745    2.2695 H   0  0  0  0  0  0  0  0  0  0  0  0 
    7.5769   -3.7529    1.0275 H   0  0  0  0  0  0  0  0  0  0  0  0 
    4.0020   -4.1844    0.9219 H   0  0  0  0  0  0  0  0  0  0  0  0 
    3.5961   -2.6340    1.6655 H   0  0  0  0  0  0  0  0  0  0  0  0 
    4.2211   -3.9622    2.6773 H   0  0  0  0  0  0  0  0  0  0  0  0 
    4.2650    0.6346    5.8212 H   0  0  0  0  0  0  0  0  0  0  0  0 
    3.8378   -0.5585    4.5936 H   0  0  0  0  0  0  0  0  0  0  0  0 
    5.9835   -2.3384    3.4102 H   0  0  0  0  0  0  0  0  0  0  0  0 
    7.1926   -1.8425    2.2168 H   0  0  0  0  0  0  0  0  0  0  0  0 
    6.2255   -0.4747    4.8275 H   0  0  0  0  0  0  0  0  0  0  0  0 
    6.2855    1.2830    4.7075 H   0  0  0  0  0  0  0  0  0  0  0  0 
    4.3612   -0.6660    2.3414 H   0  0  0  0  0  0  0  0  0  0  0  0 
    5.5854   -0.3266    1.1148 H   0  0  0  0  0  0  0  0  0  0  0  0 
  1 13  1  0  0  0  0 
  2 17  1  0  0  0  0 
  3 10  1  0  0  0  0 
  3 19  1  0  0  0  0 
  4 23  1  0  0  0  0 
  5 24  1  0  0  0  0 
  6 26  1  0  0  0  0 
  7 29  1  0  0  0  0 
  7  5  1  0  0  0  0 
  7 28  1  0  0  0  0 
  8 30  1  0  0  0  0 
  8  6  1  0  0  0  0 
  8 11  1  0  0  0  0 
  9  2  1  0  0  0  0 
  9  1  1  0  0  0  0 
  9  5  1  0  0  0  0 
 10  4  1  0  0  0  0 
 10  6  1  0  0  0  0 
 11  7  1  0  0  0  0 
 12  1  1  0  0  0  0 
 14  1  1  0  0  0  0 
 15  2  1  0  0  0  0 
 16  2  1  0  0  0  0 
 18  3  1  0  0  0  0 
 20  3  1  0  0  0  0 
 21  4  1  0  0  0  0 
 22  4  1  0  0  0  0 
 25  5  1  0  0  0  0 
 27  6  1  0  0  0  0 
 31  8  1  0  0  0  0 
M  END 
>  <HBA> 
3 
 
>  <HBD> 
0 
 
>  <TPSA> 
15.71 
 
>  <cid> 
18204 
 
>  <dipole> 
1.8 
 
>  <excitation_energy_1> 
5.173 
 
>  <excitation_energy_2> 
5.256 
 
>  <excitation_energy_3> 
5.609 
 
>  <excitation_energy_4> 
5.623 
 
>  <homo_energy> 
-5.674 
 
>  <homo_lumo_gap> 
7.576 
 
>  <logP> 
0.126 
 
>  <lumo_energy> 
1.902 
 
>  <melting_point> 
-31.57 
 
>  <molecular_refractivity> 
47.45 
 
>  <oscillator_strength_1> 
0.022 
 
>  <oscillator_strength_2> 
0.0275 
 
>  <oscillator_strength_3> 
0.0023 
 
>  <oscillator_strength_4> 
0.0096 
 
>  <open_babel_can_smiles> 
CN(CCOCCN(C)C)C 
 
>  <mulliken_charges> 
31 
1   -0.291588 
2   -0.308704 
3   -0.292443 
4   -0.302614 
5   -0.142135 
6   -0.140527 
7   -0.041085 
8   -0.029716 
9   -0.354003 
10   -0.368413 
11   -0.47243 
12   0.148918 
13   0.115781 
14   0.144693 
15   0.146518 
16   0.175113 
17   0.111363 
18   0.146993 
19   0.115718 
20   0.150942 
21   0.149681 
22   0.154773 
23   0.114306 
24   0.109058 
25   0.137526 
26   0.106878 
27   0.145968 
28   0.126985 
29   0.147568 
30   0.14197 
31   0.152906 
 
>  <lowdin_charges> 
31 
1   -0.35382 
2   -0.360761 
3   -0.356145 
4   -0.360079 
5   -0.218033 
6   -0.214509 
7   -0.143614 
8   -0.136957 
9   -0.17982 
10   -0.182201 
11   -0.269998 
12   0.151382 
13   0.117274 
14   0.146755 
15   0.15221 
16   0.161103 
17   0.116378 
18   0.149994 
19   0.119191 
20   0.149926 
21   0.152061 
22   0.151414 
23   0.117678 
24   0.118693 
25   0.140473 
26   0.113045 
27   0.148237 
28   0.133086 
29   0.148924 
30   0.135978 
31   0.152136 
 
$$$$ 
 
