PCCDB-ID:  70632 
public computational chemistry database (PCCDB) project, http://pccdb.org 
 
 17 18  0  0  0  0  0  0  0  0999 V2000 
    2.2344   -1.0615    1.0776 C   0  0  0  0  0  0  0  0  0  0  0  0 
    4.6238    1.9292   -3.0758 C   0  0  0  0  0  0  0  0  0  0  0  0 
    3.7137   -2.2847   -2.4590 C   0  0  0  0  0  0  0  0  0  0  0  0 
    3.8429    0.3348   -1.9120 C   0  0  0  0  0  0  0  0  0  0  0  0 
    4.3121   -0.2575   -3.0969 C   0  0  0  0  0  0  0  0  0  0  0  0 
    3.2764   -0.5660   -0.9879 C   0  0  0  0  0  0  0  0  0  0  0  0 
    4.0489    1.7040   -1.9213 N   0  0  0  0  0  0  0  0  0  0  0  0 
    4.8129    0.7907   -3.8339 N   0  0  0  0  0  0  0  0  0  0  0  0 
    4.2737   -1.5552   -3.4222 N   0  0  0  0  0  0  0  0  0  0  0  0 
    3.2203   -1.8652   -1.2769 N   0  0  0  0  0  0  0  0  0  0  0  0 
    2.8001   -0.1038    0.1714 O   0  0  0  0  0  0  0  0  0  0  0  0 
    1.9227   -0.4790    1.9453 H   0  0  0  0  0  0  0  0  0  0  0  0 
    2.9761   -1.8121    1.3635 H   0  0  0  0  0  0  0  0  0  0  0  0 
    1.3767   -1.5663    0.6247 H   0  0  0  0  0  0  0  0  0  0  0  0 
    4.9356    2.9017   -3.4348 H   0  0  0  0  0  0  0  0  0  0  0  0 
    3.6423   -3.3542   -2.6430 H   0  0  0  0  0  0  0  0  0  0  0  0 
    5.2290    0.7216   -4.7517 H   0  0  0  0  0  0  0  0  0  0  0  0 
  1 13  1  0  0  0  0 
  1 12  1  0  0  0  0 
  2  7  2  0  0  0  0 
  3 10  1  0  0  0  0 
  4  6  1  0  0  0  0 
  5  4  2  0  0  0  0 
  6 11  1  0  0  0  0 
  7  4  1  0  0  0  0 
  8  5  1  0  0  0  0 
  8  2  1  0  0  0  0 
  9  5  1  0  0  0  0 
  9  3  2  0  0  0  0 
 10  6  2  0  0  0  0 
 11  1  1  0  0  0  0 
 14  1  1  0  0  0  0 
 15  2  1  0  0  0  0 
 16  3  1  0  0  0  0 
 17  8  1  0  0  0  0 
M  END 
>  <HBA> 
4 
 
>  <HBD> 
1 
 
>  <TPSA> 
63.69 
 
>  <cid> 
70632 
 
>  <dipole> 
1.69 
 
>  <excitation_energy_1> 
4.95 
 
>  <excitation_energy_2> 
5.221 
 
>  <excitation_energy_3> 
5.411 
 
>  <excitation_energy_4> 
5.665 
 
>  <homo_energy> 
-6.373 
 
>  <homo_lumo_gap> 
5.619 
 
>  <logP> 
0.361 
 
>  <lumo_energy> 
-0.754 
 
>  <melting_point> 
147.55 
 
>  <molecular_refractivity> 
38.18 
 
>  <oscillator_strength_1> 
0.0004 
 
>  <oscillator_strength_2> 
0.2612 
 
>  <oscillator_strength_3> 
0.007 
 
>  <oscillator_strength_4> 
0.0006 
 
>  <open_babel_can_smiles> 
COc1ncnc2c1nc[nH]2 
 
>  <mulliken_charges> 
17 
1   -0.208754 
2   0.231984 
3   0.161304 
4   0.189486 
5   0.515769 
6   0.53913 
7   -0.48477 
8   -0.649475 
9   -0.484858 
10   -0.508942 
11   -0.472013 
12   0.16705 
13   0.169724 
14   0.169278 
15   0.169625 
16   0.150662 
17   0.344798 
 
>  <lowdin_charges> 
17 
1   -0.276229 
2   -0.056633 
3   -0.032947 
4   -0.047851 
5   0.0609 
6   0.152089 
7   -0.166996 
8   -0.18807 
9   -0.18814 
10   -0.212903 
11   -0.16108 
12   0.162112 
13   0.160154 
14   0.159576 
15   0.173763 
16   0.158387 
17   0.303868 
 
$$$$ 
 
