PCCDB-ID:  66048 
public computational chemistry database (PCCDB) project, http://pccdb.org 
 
 21 21  0  0  0  0  0  0  0  0999 V2000 
    1.0244    0.0497   -0.1108 C   0  0  0  0  0  0  0  0  0  0  0  0 
    4.5028   -1.1360    0.7412 C   0  0  0  0  0  0  0  0  0  0  0  0 
    4.4563    1.3720    0.7289 C   0  0  0  0  0  0  0  0  0  0  0  0 
    2.9705   -1.1191    0.7122 C   0  0  0  0  0  0  0  0  0  0  0  0 
    2.9256    1.2981    0.7001 C   0  0  0  0  0  0  0  0  0  0  0  0 
    5.0561    0.1320    1.3999 C   0  0  0  0  0  0  0  0  0  0  0  0 
    2.4714    0.0773    0.0349 N   0  0  0  0  0  0  0  0  0  0  0  0 
    6.4815    0.1586    1.4176 O   0  0  0  0  0  0  0  0  0  0  0  0 
    0.7255   -0.8455   -0.6674 H   0  0  0  0  0  0  0  0  0  0  0  0 
    0.6926    0.9278   -0.6758 H   0  0  0  0  0  0  0  0  0  0  0  0 
    0.4862    0.0444    0.8582 H   0  0  0  0  0  0  0  0  0  0  0  0 
    4.8758   -1.1942   -0.2916 H   0  0  0  0  0  0  0  0  0  0  0  0 
    4.8652   -2.0219    1.2755 H   0  0  0  0  0  0  0  0  0  0  0  0 
    4.7854    2.2759    1.2544 H   0  0  0  0  0  0  0  0  0  0  0  0 
    4.8273    1.4337   -0.3044 H   0  0  0  0  0  0  0  0  0  0  0  0 
    2.5812   -1.1887    1.7506 H   0  0  0  0  0  0  0  0  0  0  0  0 
    2.5963   -1.9993    0.1761 H   0  0  0  0  0  0  0  0  0  0  0  0 
    2.5189    2.1585    0.1555 H   0  0  0  0  0  0  0  0  0  0  0  0 
    2.5339    1.3634    1.7379 H   0  0  0  0  0  0  0  0  0  0  0  0 
    4.7713    0.1319    2.4602 H   0  0  0  0  0  0  0  0  0  0  0  0 
    6.7783    0.1604    0.4930 H   0  0  0  0  0  0  0  0  0  0  0  0 
  1  7  1  0  0  0  0 
  1 11  1  0  0  0  0 
  2 13  1  0  0  0  0 
  2  6  1  0  0  0  0 
  3 14  1  0  0  0  0 
  3  6  1  0  0  0  0 
  4  2  1  0  0  0  0 
  4 16  1  0  0  0  0 
  5  3  1  0  0  0  0 
  5 19  1  0  0  0  0 
  6  8  1  0  0  0  0 
  6 20  1  0  0  0  0 
  7  5  1  0  0  0  0 
  7  4  1  0  0  0  0 
  9  1  1  0  0  0  0 
 10  1  1  0  0  0  0 
 12  2  1  0  0  0  0 
 15  3  1  0  0  0  0 
 17  4  1  0  0  0  0 
 18  5  1  0  0  0  0 
 21  8  1  0  0  0  0 
M  END 
>  <HBA> 
2 
 
>  <HBD> 
1 
 
>  <TPSA> 
23.47 
 
>  <cid> 
66048 
 
>  <dipole> 
1.52 
 
>  <excitation_energy_1> 
5.407 
 
>  <excitation_energy_2> 
5.623 
 
>  <excitation_energy_3> 
5.917 
 
>  <excitation_energy_4> 
5.967 
 
>  <homo_energy> 
-5.807 
 
>  <homo_lumo_gap> 
7.864 
 
>  <logP> 
0.011 
 
>  <lumo_energy> 
2.057 
 
>  <melting_point> 
17.27 
 
>  <molecular_refractivity> 
36.81 
 
>  <oscillator_strength_1> 
0.0261 
 
>  <oscillator_strength_2> 
0.037 
 
>  <oscillator_strength_3> 
0.0058 
 
>  <oscillator_strength_4> 
0.0512 
 
>  <open_babel_can_smiles> 
CN1CCC(CC1)O 
 
>  <mulliken_charges> 
21 
1   -0.290928 
2   -0.277721 
3   -0.277645 
4   -0.124563 
5   -0.1247 
6   0.137109 
7   -0.377516 
8   -0.625616 
9   0.147861 
10   0.147864 
11   0.117779 
12   0.127187 
13   0.143619 
14   0.143606 
15   0.127145 
16   0.108227 
17   0.138828 
18   0.138857 
19   0.108236 
20   0.130941 
21   0.38143 
 
>  <lowdin_charges> 
21 
1   -0.356098 
2   -0.296377 
3   -0.296169 
4   -0.199428 
5   -0.199563 
6   -0.005474 
7   -0.188824 
8   -0.459567 
9   0.150045 
10   0.150192 
11   0.120561 
12   0.139585 
13   0.153138 
14   0.15297 
15   0.139552 
16   0.113121 
17   0.147412 
18   0.147587 
19   0.113121 
20   0.138384 
21   0.335833 
 
$$$$ 
 
