PCCDB-ID:  7150 
public computational chemistry database (PCCDB) project, http://pccdb.org 
 
 18 18  0  0  0  0  0  0  0  0999 V2000 
    3.3973    1.0375    1.1910 C   0  0  0  0  0  0  0  0  0  0  0  0 
    0.6821   -4.3170    3.3990 C   0  0  0  0  0  0  0  0  0  0  0  0 
    0.3160   -2.9788    3.5630 C   0  0  0  0  0  0  0  0  0  0  0  0 
    1.8123   -4.6466    2.6459 C   0  0  0  0  0  0  0  0  0  0  0  0 
    1.0762   -1.9684    2.9764 C   0  0  0  0  0  0  0  0  0  0  0  0 
    2.5747   -3.6404    2.0585 C   0  0  0  0  0  0  0  0  0  0  0  0 
    2.2110   -2.2967    2.2215 C   0  0  0  0  0  0  0  0  0  0  0  0 
    3.0636   -1.2631    1.5691 C   0  0  0  0  0  0  0  0  0  0  0  0 
    4.0526   -1.5042    0.9044 O   0  0  0  0  0  0  0  0  0  0  0  0 
    2.6175   -0.0047    1.7950 O   0  0  0  0  0  0  0  0  0  0  0  0 
    2.8992    1.9693    1.4608 H   0  0  0  0  0  0  0  0  0  0  0  0 
    3.4262    0.9164    0.1048 H   0  0  0  0  0  0  0  0  0  0  0  0 
    4.4211    1.0234    1.5747 H   0  0  0  0  0  0  0  0  0  0  0  0 
    0.0869   -5.1025    3.8573 H   0  0  0  0  0  0  0  0  0  0  0  0 
   -0.5623   -2.7225    4.1489 H   0  0  0  0  0  0  0  0  0  0  0  0 
    2.0980   -5.6871    2.5187 H   0  0  0  0  0  0  0  0  0  0  0  0 
    0.7986   -0.9278    3.1006 H   0  0  0  0  0  0  0  0  0  0  0  0 
    3.4563   -3.8719    1.4699 H   0  0  0  0  0  0  0  0  0  0  0  0 
  1 11  1  0  0  0  0 
  1 13  1  0  0  0  0 
  1 10  1  0  0  0  0 
  2  3  1  0  0  0  0 
  2 14  1  0  0  0  0 
  3 15  1  0  0  0  0 
  4  2  2  0  0  0  0 
  5 17  1  0  0  0  0 
  5  3  2  0  0  0  0 
  6  7  2  0  0  0  0 
  6  4  1  0  0  0  0 
  7  5  1  0  0  0  0 
  8 10  1  0  0  0  0 
  8  7  1  0  0  0  0 
  9  8  2  0  0  0  0 
 12  1  1  0  0  0  0 
 16  4  1  0  0  0  0 
 18  6  1  0  0  0  0 
M  END 
>  <HBA> 
2 
 
>  <HBD> 
0 
 
>  <TPSA> 
26.3 
 
>  <cid> 
7150 
 
>  <dipole> 
1.87 
 
>  <excitation_energy_1> 
4.874 
 
>  <excitation_energy_2> 
4.918 
 
>  <excitation_energy_3> 
5.398 
 
>  <excitation_energy_4> 
6.305 
 
>  <homo_energy> 
-6.996 
 
>  <homo_lumo_gap> 
5.812 
 
>  <logP> 
1.473 
 
>  <lumo_energy> 
-1.184 
 
>  <melting_point> 
29.26 
 
>  <molecular_refractivity> 
37.72 
 
>  <oscillator_strength_1> 
0.0001 
 
>  <oscillator_strength_2> 
0.0188 
 
>  <oscillator_strength_3> 
0.2555 
 
>  <oscillator_strength_4> 
0.0252 
 
>  <open_babel_can_smiles> 
COC(=O)c1ccccc1 
 
>  <mulliken_charges> 
18 
1   -0.216082 
2   -0.117048 
3   -0.137044 
4   -0.138411 
5   -0.158147 
6   -0.151788 
7   0.051103 
8   0.589311 
9   -0.491115 
10   -0.467184 
11   0.16325 
12   0.171663 
13   0.171199 
14   0.136801 
15   0.136252 
16   0.137876 
17   0.156067 
18   0.163298 
 
>  <lowdin_charges> 
18 
1   -0.274447 
2   -0.14196 
3   -0.156738 
4   -0.155076 
5   -0.13817 
6   -0.129827 
7   -0.045624 
8   0.195217 
9   -0.269503 
10   -0.192133 
11   0.159827 
12   0.157969 
13   0.158748 
14   0.162348 
15   0.161057 
16   0.160453 
17   0.170756 
18   0.177101 
 
$$$$ 
 
