PCCDB-ID:  20451 
public computational chemistry database (PCCDB) project, http://pccdb.org 
 
 28 27  0  0  0  0  0  0  0  0999 V2000 
   11.1730   -3.9801    3.8810 C   0  0  0  0  0  0  0  0  0  0  0  0 
    7.7568    0.8252   -0.8139 C   0  0  0  0  0  0  0  0  0  0  0  0 
   11.8028   -2.8679    4.7279 C   0  0  0  0  0  0  0  0  0  0  0  0 
    7.5562    1.1644    0.6540 C   0  0  0  0  0  0  0  0  0  0  0  0 
   11.6220   -1.4415    4.1793 C   0  0  0  0  0  0  0  0  0  0  0  0 
   10.2227   -0.8450    4.3113 C   0  0  0  0  0  0  0  0  0  0  0  0 
    7.6691    0.2080    2.8104 C   0  0  0  0  0  0  0  0  0  0  0  0 
    7.9763   -1.0945    3.5409 C   0  0  0  0  0  0  0  0  0  0  0  0 
    7.8203    0.0039    1.4225 O   0  0  0  0  0  0  0  0  0  0  0  0 
    9.3233   -1.5192    3.4438 O   0  0  0  0  0  0  0  0  0  0  0  0 
   11.3821   -4.9653    4.3150 H   0  0  0  0  0  0  0  0  0  0  0  0 
   11.5794   -3.9716    2.8620 H   0  0  0  0  0  0  0  0  0  0  0  0 
   10.0908   -3.8552    3.8006 H   0  0  0  0  0  0  0  0  0  0  0  0 
    7.5639    1.7032   -1.4402 H   0  0  0  0  0  0  0  0  0  0  0  0 
    7.0762    0.0237   -1.1187 H   0  0  0  0  0  0  0  0  0  0  0  0 
    8.7830    0.4882   -0.9916 H   0  0  0  0  0  0  0  0  0  0  0  0 
   12.8803   -3.0613    4.8230 H   0  0  0  0  0  0  0  0  0  0  0  0 
   11.3997   -2.9087    5.7506 H   0  0  0  0  0  0  0  0  0  0  0  0 
    6.5241    1.5137    0.8341 H   0  0  0  0  0  0  0  0  0  0  0  0 
    8.2307    1.9836    0.9585 H   0  0  0  0  0  0  0  0  0  0  0  0 
   11.9168   -1.4039    3.1219 H   0  0  0  0  0  0  0  0  0  0  0  0 
   12.3029   -0.7669    4.7171 H   0  0  0  0  0  0  0  0  0  0  0  0 
   10.2645    0.2292    4.0686 H   0  0  0  0  0  0  0  0  0  0  0  0 
    9.8700   -0.9281    5.3554 H   0  0  0  0  0  0  0  0  0  0  0  0 
    8.3297    1.0206    3.1582 H   0  0  0  0  0  0  0  0  0  0  0  0 
    6.6337    0.5104    3.0526 H   0  0  0  0  0  0  0  0  0  0  0  0 
    7.3755   -1.8930    3.0933 H   0  0  0  0  0  0  0  0  0  0  0  0 
    7.6768   -0.9885    4.5977 H   0  0  0  0  0  0  0  0  0  0  0  0 
  1 11  1  0  0  0  0 
  1  3  1  0  0  0  0 
  2  4  1  0  0  0  0 
  3 17  1  0  0  0  0 
  3 18  1  0  0  0  0 
  4 19  1  0  0  0  0 
  4 20  1  0  0  0  0 
  4  9  1  0  0  0  0 
  5  6  1  0  0  0  0 
  5 22  1  0  0  0  0 
  5  3  1  0  0  0  0 
  6 24  1  0  0  0  0 
  7 26  1  0  0  0  0 
  7 25  1  0  0  0  0 
  7  8  1  0  0  0  0 
  8 28  1  0  0  0  0 
  9  7  1  0  0  0  0 
 10  8  1  0  0  0  0 
 10  6  1  0  0  0  0 
 12  1  1  0  0  0  0 
 13  1  1  0  0  0  0 
 14  2  1  0  0  0  0 
 15  2  1  0  0  0  0 
 16  2  1  0  0  0  0 
 21  5  1  0  0  0  0 
 23  6  1  0  0  0  0 
 27  8  1  0  0  0  0 
M  END 
>  <HBA> 
2 
 
>  <HBD> 
0 
 
>  <TPSA> 
18.46 
 
>  <cid> 
20451 
 
>  <dipole> 
2.15 
 
>  <excitation_energy_1> 
6.236 
 
>  <excitation_energy_2> 
6.462 
 
>  <excitation_energy_3> 
6.683 
 
>  <excitation_energy_4> 
6.741 
 
>  <homo_energy> 
-6.683 
 
>  <homo_lumo_gap> 
8.879 
 
>  <logP> 
1.84 
 
>  <lumo_energy> 
2.196 
 
>  <melting_point> 
-45.79 
 
>  <molecular_refractivity> 
42.74 
 
>  <oscillator_strength_1> 
0.0092 
 
>  <oscillator_strength_2> 
0.0367 
 
>  <oscillator_strength_3> 
0.0161 
 
>  <oscillator_strength_4> 
0.0049 
 
>  <open_babel_can_smiles> 
CCCCOCCOCC 
 
>  <mulliken_charges> 
28 
1   -0.435128 
2   -0.452763 
3   -0.247559 
4   -0.001428 
5   -0.269891 
6   -0.014196 
7   -0.021632 
8   -0.032299 
9   -0.46109 
10   -0.457112 
11   0.129674 
12   0.138426 
13   0.166618 
14   0.140995 
15   0.158257 
16   0.161121 
17   0.129089 
18   0.124929 
19   0.11556 
20   0.116798 
21   0.147163 
22   0.127957 
23   0.119115 
24   0.111637 
25   0.12102 
26   0.113508 
27   0.156051 
28   0.115178 
 
>  <lowdin_charges> 
28 
1   -0.445957 
2   -0.448937 
3   -0.267991 
4   -0.124359 
5   -0.281931 
6   -0.127381 
7   -0.144747 
8   -0.137546 
9   -0.269187 
10   -0.264163 
11   0.142302 
12   0.144888 
13   0.156592 
14   0.153485 
15   0.157866 
16   0.157584 
17   0.138326 
18   0.135252 
19   0.121745 
20   0.124595 
21   0.148834 
22   0.147373 
23   0.123744 
24   0.119817 
25   0.128194 
26   0.126272 
27   0.157297 
28   0.12803 
 
$$$$ 
 
