PCCDB-ID:  19842 
public computational chemistry database (PCCDB) project, http://pccdb.org 
 
 32 32  0  0  0  0  0  0  0  0999 V2000 
    1.6146    0.7304    1.2771 C   0  0  0  0  0  0  0  0  0  0  0  0 
    3.0546    0.7485   -0.8257 C   0  0  0  0  0  0  0  0  0  0  0  0 
    4.3145   -5.3592    1.4994 C   0  0  0  0  0  0  0  0  0  0  0  0 
    6.7455    1.1053    2.3926 C   0  0  0  0  0  0  0  0  0  0  0  0 
    2.6026   -3.8755    0.3487 C   0  0  0  0  0  0  0  0  0  0  0  0 
    2.1030   -2.6158    0.0198 C   0  0  0  0  0  0  0  0  0  0  0  0 
    4.3719   -2.8330    1.5792 C   0  0  0  0  0  0  0  0  0  0  0  0 
    2.1111   -0.0827    0.0657 C   0  0  0  0  0  0  0  0  0  0  0  0 
    3.7494   -4.0054    1.1374 C   0  0  0  0  0  0  0  0  0  0  0  0 
    2.7059   -1.4299    0.4589 C   0  0  0  0  0  0  0  0  0  0  0  0 
    3.8524   -1.5841    1.2523 C   0  0  0  0  0  0  0  0  0  0  0  0 
    4.8781   -0.2186    2.9486 C   0  0  0  0  0  0  0  0  0  0  0  0 
    5.8365    0.4996    3.3506 N   0  0  0  0  0  0  0  0  0  0  0  0 
    4.0226   -0.8149    3.8112 O   0  0  0  0  0  0  0  0  0  0  0  0 
    4.5455   -0.4302    1.6468 O   0  0  0  0  0  0  0  0  0  0  0  0 
    1.0814    1.6257    0.9350 H   0  0  0  0  0  0  0  0  0  0  0  0 
    2.4427    1.0564    1.9126 H   0  0  0  0  0  0  0  0  0  0  0  0 
    0.9277    0.1406    1.8936 H   0  0  0  0  0  0  0  0  0  0  0  0 
    2.5483    1.6609   -1.1634 H   0  0  0  0  0  0  0  0  0  0  0  0 
    3.3573    0.1819   -1.7135 H   0  0  0  0  0  0  0  0  0  0  0  0 
    3.9587    1.0417   -0.2848 H   0  0  0  0  0  0  0  0  0  0  0  0 
    3.6805   -6.1676    1.1223 H   0  0  0  0  0  0  0  0  0  0  0  0 
    4.4006   -5.4801    2.5861 H   0  0  0  0  0  0  0  0  0  0  0  0 
    5.3184   -5.5005    1.0793 H   0  0  0  0  0  0  0  0  0  0  0  0 
    7.7693    1.0215    2.7740 H   0  0  0  0  0  0  0  0  0  0  0  0 
    6.5253    2.1765    2.2950 H   0  0  0  0  0  0  0  0  0  0  0  0 
    6.7032    0.6546    1.3930 H   0  0  0  0  0  0  0  0  0  0  0  0 
    2.0945   -4.7660   -0.0130 H   0  0  0  0  0  0  0  0  0  0  0  0 
    1.2103   -2.5446   -0.5973 H   0  0  0  0  0  0  0  0  0  0  0  0 
    5.2703   -2.8858    2.1885 H   0  0  0  0  0  0  0  0  0  0  0  0 
    1.2257   -0.3179   -0.5408 H   0  0  0  0  0  0  0  0  0  0  0  0 
    4.3566   -0.5796    4.6948 H   0  0  0  0  0  0  0  0  0  0  0  0 
  1 18  1  0  0  0  0 
  1 17  1  0  0  0  0 
  2 21  1  0  0  0  0 
  2  8  1  0  0  0  0 
  3 23  1  0  0  0  0 
  4 25  1  0  0  0  0 
  4 13  1  0  0  0  0 
  5  9  1  0  0  0  0 
  6  5  2  0  0  0  0 
  6 10  1  0  0  0  0 
  7 30  1  0  0  0  0 
  8 10  1  0  0  0  0 
  8  1  1  0  0  0  0 
  9  3  1  0  0  0  0 
  9  7  2  0  0  0  0 
 10 11  2  0  0  0  0 
 11  7  1  0  0  0  0 
 11 15  1  0  0  0  0 
 12 13  2  0  0  0  0 
 12 14  1  0  0  0  0 
 14 32  1  0  0  0  0 
 15 12  1  0  0  0  0 
 16  1  1  0  0  0  0 
 19  2  1  0  0  0  0 
 20  2  1  0  0  0  0 
 22  3  1  0  0  0  0 
 24  3  1  0  0  0  0 
 26  4  1  0  0  0  0 
 27  4  1  0  0  0  0 
 28  5  1  0  0  0  0 
 29  6  1  0  0  0  0 
 31  8  1  0  0  0  0 
M  END 
>  <HBA> 
3 
 
>  <HBD> 
1 
 
>  <TPSA> 
38.33 
 
>  <cid> 
19842 
 
>  <dipole> 
1.19 
 
>  <excitation_energy_1> 
5.084 
 
>  <excitation_energy_2> 
5.65 
 
>  <excitation_energy_3> 
5.799 
 
>  <excitation_energy_4> 
5.871 
 
>  <homo_energy> 
-6.234 
 
>  <homo_lumo_gap> 
6.18 
 
>  <logP> 
3.228 
 
>  <lumo_energy> 
-0.054 
 
>  <melting_point> 
75.01 
 
>  <molecular_refractivity> 
60.68 
 
>  <oscillator_strength_1> 
0.0169 
 
>  <oscillator_strength_2> 
0.0455 
 
>  <oscillator_strength_3> 
0.0008 
 
>  <oscillator_strength_4> 
0.0302 
 
>  <open_babel_can_smiles> 
C/N=C(\Oc1cc(C)ccc1C(C)C)/O 
 
>  <mulliken_charges> 
32 
1   -0.444631 
2   -0.448563 
3   -0.530821 
4   -0.324645 
5   -0.169556 
6   -0.214415 
7   -0.190896 
8   -0.14862 
9   0.165976 
10   0.152989 
11   0.290612 
12   0.699876 
13   -0.473436 
14   -0.589762 
15   -0.541659 
16   0.138205 
17   0.157605 
18   0.148052 
19   0.138075 
20   0.143504 
21   0.165205 
22   0.156279 
23   0.164042 
24   0.16417 
25   0.153843 
26   0.155054 
27   0.152124 
28   0.121573 
29   0.127317 
30   0.132221 
31   0.128302 
32   0.421976 
 
>  <lowdin_charges> 
32 
1   -0.446705 
2   -0.447714 
3   -0.440067 
4   -0.350881 
5   -0.175739 
6   -0.159406 
7   -0.178993 
8   -0.11365 
9   0.004709 
10   -0.01987 
11   0.099057 
12   0.185009 
13   -0.25931 
14   -0.359794 
15   -0.161503 
16   0.147886 
17   0.155452 
18   0.153634 
19   0.14754 
20   0.150252 
21   0.157481 
22   0.158554 
23   0.159784 
24   0.160898 
25   0.150671 
26   0.149951 
27   0.142478 
28   0.156222 
29   0.156431 
30   0.163158 
31   0.143206 
32   0.371261 
 
$$$$ 
 
