PCCDB-ID:  42549 
public computational chemistry database (PCCDB) project, http://pccdb.org 
 
 40 39  0  0  0  0  0  0  0  0999 V2000 
    5.8761   -3.3524   -2.8528 C   0  0  0  0  0  0  0  0  0  0  0  0 
   12.0280    2.4574   -2.4809 C   0  0  0  0  0  0  0  0  0  0  0  0 
    6.5781   -2.9606   -1.5488 C   0  0  0  0  0  0  0  0  0  0  0  0 
   12.4376    2.1598   -1.0333 C   0  0  0  0  0  0  0  0  0  0  0  0 
    7.0451   -1.4990   -1.5244 C   0  0  0  0  0  0  0  0  0  0  0  0 
   12.3566    3.3683   -0.0846 C   0  0  0  0  0  0  0  0  0  0  0  0 
    7.7639   -1.1154   -0.2236 C   0  0  0  0  0  0  0  0  0  0  0  0 
    8.3211    0.3183   -0.1806 C   0  0  0  0  0  0  0  0  0  0  0  0 
    7.2438    1.4116   -0.1465 C   0  0  0  0  0  0  0  0  0  0  0  0 
    7.7647    2.8590   -0.1748 C   0  0  0  0  0  0  0  0  0  0  0  0 
   10.9395    3.8972    0.1688 C   0  0  0  0  0  0  0  0  0  0  0  0 
    8.5763    3.3108    1.0700 C   0  0  0  0  0  0  0  0  0  0  0  0 
   10.0660    2.9804    1.0243 C   0  0  0  0  0  0  0  0  0  0  0  0 
   10.5431    2.0587    1.6630 O   0  0  0  0  0  0  0  0  0  0  0  0 
    5.5549   -4.4002   -2.8360 H   0  0  0  0  0  0  0  0  0  0  0  0 
    6.5401   -3.2201   -3.7159 H   0  0  0  0  0  0  0  0  0  0  0  0 
    4.9854   -2.7351   -3.0251 H   0  0  0  0  0  0  0  0  0  0  0  0 
   12.1551    1.5718   -3.1140 H   0  0  0  0  0  0  0  0  0  0  0  0 
   12.6385    3.2624   -2.9097 H   0  0  0  0  0  0  0  0  0  0  0  0 
   10.9777    2.7628   -2.5599 H   0  0  0  0  0  0  0  0  0  0  0  0 
    7.4454   -3.6167   -1.3871 H   0  0  0  0  0  0  0  0  0  0  0  0 
    5.9018   -3.1394   -0.7006 H   0  0  0  0  0  0  0  0  0  0  0  0 
   13.4724    1.7922   -1.0284 H   0  0  0  0  0  0  0  0  0  0  0  0 
   11.8249    1.3444   -0.6301 H   0  0  0  0  0  0  0  0  0  0  0  0 
    6.1757   -0.8458   -1.6862 H   0  0  0  0  0  0  0  0  0  0  0  0 
    7.7204   -1.3224   -2.3756 H   0  0  0  0  0  0  0  0  0  0  0  0 
   12.9685    4.1864   -0.4883 H   0  0  0  0  0  0  0  0  0  0  0  0 
   12.7919    3.0896    0.8813 H   0  0  0  0  0  0  0  0  0  0  0  0 
    8.5985   -1.8134   -0.0661 H   0  0  0  0  0  0  0  0  0  0  0  0 
    7.0829   -1.2657    0.6276 H   0  0  0  0  0  0  0  0  0  0  0  0 
    8.9728    0.4769   -1.0544 H   0  0  0  0  0  0  0  0  0  0  0  0 
    8.9647    0.4183    0.6996 H   0  0  0  0  0  0  0  0  0  0  0  0 
    6.6237    1.2768    0.7526 H   0  0  0  0  0  0  0  0  0  0  0  0 
    6.5657    1.2880   -1.0011 H   0  0  0  0  0  0  0  0  0  0  0  0 
    6.9009    3.5291   -0.2662 H   0  0  0  0  0  0  0  0  0  0  0  0 
    8.3612    3.0171   -1.0848 H   0  0  0  0  0  0  0  0  0  0  0  0 
   10.4140    4.1257   -0.7680 H   0  0  0  0  0  0  0  0  0  0  0  0 
   10.9878    4.8582    0.7050 H   0  0  0  0  0  0  0  0  0  0  0  0 
    8.1589    2.8591    1.9765 H   0  0  0  0  0  0  0  0  0  0  0  0 
    8.4805    4.4010    1.1653 H   0  0  0  0  0  0  0  0  0  0  0  0 
  1 15  1  0  0  0  0 
  1  3  1  0  0  0  0 
  2  4  1  0  0  0  0 
  3  5  1  0  0  0  0 
  3 21  1  0  0  0  0 
  3 22  1  0  0  0  0 
  4 23  1  0  0  0  0 
  4 24  1  0  0  0  0 
  4  6  1  0  0  0  0 
  5  7  1  0  0  0  0 
  6 11  1  0  0  0  0 
  6 28  1  0  0  0  0 
  7  8  1  0  0  0  0 
  7 29  1  0  0  0  0 
  7 30  1  0  0  0  0 
  8  9  1  0  0  0  0 
  8 32  1  0  0  0  0 
  9 33  1  0  0  0  0 
 10  9  1  0  0  0  0 
 10 12  1  0  0  0  0 
 11 38  1  0  0  0  0 
 11 13  1  0  0  0  0 
 12 40  1  0  0  0  0 
 12 39  1  0  0  0  0 
 13 12  1  0  0  0  0 
 13 14  2  0  0  0  0 
 16  1  1  0  0  0  0 
 17  1  1  0  0  0  0 
 18  2  1  0  0  0  0 
 19  2  1  0  0  0  0 
 20  2  1  0  0  0  0 
 25  5  1  0  0  0  0 
 26  5  1  0  0  0  0 
 27  6  1  0  0  0  0 
 31  8  1  0  0  0  0 
 34  9  1  0  0  0  0 
 35 10  1  0  0  0  0 
 36 10  1  0  0  0  0 
 37 11  1  0  0  0  0 
M  END 
>  <HBA> 
1 
 
>  <HBD> 
0 
 
>  <TPSA> 
17.07 
 
>  <cid> 
42549 
 
>  <dipole> 
2.38 
 
>  <excitation_energy_1> 
4.277 
 
>  <excitation_energy_2> 
5.997 
 
>  <excitation_energy_3> 
6.44 
 
>  <excitation_energy_4> 
6.497 
 
>  <homo_energy> 
-6.52 
 
>  <homo_lumo_gap> 
6.15 
 
>  <logP> 
4.496 
 
>  <lumo_energy> 
-0.37 
 
>  <melting_point> 
-9.82 
 
>  <molecular_refractivity> 
64.81 
 
>  <oscillator_strength_1> 
0.0004 
 
>  <oscillator_strength_2> 
0.0063 
 
>  <oscillator_strength_3> 
0.0036 
 
>  <oscillator_strength_4> 
0.0039 
 
>  <open_babel_can_smiles> 
CCCCCCCCC(=O)CCCC 
 
>  <mulliken_charges> 
40 
1   -0.441589 
2   -0.446054 
3   -0.246098 
4   -0.258045 
5   -0.247345 
6   -0.245355 
7   -0.256062 
8   -0.277682 
9   -0.253162 
10   -0.273873 
11   -0.363438 
12   -0.340579 
13   0.465535 
14   -0.451297 
15   0.141133 
16   0.140607 
17   0.139771 
18   0.144802 
19   0.13967 
20   0.137889 
21   0.130379 
22   0.129857 
23   0.133126 
24   0.155158 
25   0.128404 
26   0.124436 
27   0.124753 
28   0.154243 
29   0.130254 
30   0.125812 
31   0.12188 
32   0.16727 
33   0.130241 
34   0.13424 
35   0.140838 
36   0.137841 
37   0.156219 
38   0.161325 
39   0.16136 
40   0.143541 
 
>  <lowdin_charges> 
40 
1   -0.444059 
2   -0.448898 
3   -0.272912 
4   -0.276065 
5   -0.278444 
6   -0.275143 
7   -0.275769 
8   -0.288593 
9   -0.276786 
10   -0.271791 
11   -0.315029 
12   -0.306852 
13   0.165579 
14   -0.241573 
15   0.147658 
16   0.146224 
17   0.145598 
18   0.151619 
19   0.146025 
20   0.140254 
21   0.139193 
22   0.139169 
23   0.142933 
24   0.151105 
25   0.137013 
26   0.136576 
27   0.14172 
28   0.156095 
29   0.142717 
30   0.137906 
31   0.134981 
32   0.159143 
33   0.139154 
34   0.142497 
35   0.149248 
36   0.140958 
37   0.156582 
38   0.165912 
39   0.162293 
40   0.153758 
 
$$$$ 
 
