PCCDB-ID:  9214 
public computational chemistry database (PCCDB) project, http://pccdb.org 
 
 20 22  0  0  0  0  0  0  0  0999 V2000 
    3.1219   -0.6947    0.0035 C   0  0  0  0  0  0  0  0  0  0  0  0 
    3.1219    0.6954    0.0038 C   0  0  0  0  0  0  0  0  0  0  0  0 
   -3.1218   -0.6949   -0.0032 C   0  0  0  0  0  0  0  0  0  0  0  0 
   -3.1218    0.6953   -0.0030 C   0  0  0  0  0  0  0  0  0  0  0  0 
    1.9156   -1.4448    0.0022 C   0  0  0  0  0  0  0  0  0  0  0  0 
    1.9155    1.4454    0.0028 C   0  0  0  0  0  0  0  0  0  0  0  0 
   -1.9154   -1.4448   -0.0020 C   0  0  0  0  0  0  0  0  0  0  0  0 
   -1.9155    1.4453   -0.0015 C   0  0  0  0  0  0  0  0  0  0  0  0 
    0.7545   -0.7116    0.0012 C   0  0  0  0  0  0  0  0  0  0  0  0 
    0.7545    0.7122    0.0015 C   0  0  0  0  0  0  0  0  0  0  0  0 
   -0.7544   -0.7117   -0.0005 C   0  0  0  0  0  0  0  0  0  0  0  0 
   -0.7544    0.7122   -0.0002 C   0  0  0  0  0  0  0  0  0  0  0  0 
    4.0710   -1.2242    0.0043 H   0  0  0  0  0  0  0  0  0  0  0  0 
    4.0709    1.2249    0.0048 H   0  0  0  0  0  0  0  0  0  0  0  0 
   -4.0708   -1.2243   -0.0043 H   0  0  0  0  0  0  0  0  0  0  0  0 
   -4.0709    1.2247   -0.0038 H   0  0  0  0  0  0  0  0  0  0  0  0 
    1.9364   -2.5308    0.0020 H   0  0  0  0  0  0  0  0  0  0  0  0 
    1.9363    2.5315    0.0032 H   0  0  0  0  0  0  0  0  0  0  0  0 
   -1.9362   -2.5309   -0.0025 H   0  0  0  0  0  0  0  0  0  0  0  0 
   -1.9363    2.5314   -0.0017 H   0  0  0  0  0  0  0  0  0  0  0  0 
  1  2  1  0  0  0  0 
  1 13  1  0  0  0  0 
  2 14  1  0  0  0  0 
  3  4  2  0  0  0  0 
  3  7  1  0  0  0  0 
  4  8  1  0  0  0  0 
  5  1  2  0  0  0  0 
  6 18  1  0  0  0  0 
  6  2  2  0  0  0  0 
  7 11  2  0  0  0  0 
  8 12  2  0  0  0  0 
  9 10  2  0  0  0  0 
  9  5  1  0  0  0  0 
 10  6  1  0  0  0  0 
 11 12  1  0  0  0  0 
 11  9  1  0  0  0  0 
 12 10  1  0  0  0  0 
 15  3  1  0  0  0  0 
 16  4  1  0  0  0  0 
 17  5  1  0  0  0  0 
 19  7  1  0  0  0  0 
 20  8  1  0  0  0  0 
M  END 
>  <HBA> 
0 
 
>  <HBD> 
0 
 
>  <TPSA> 
0.0 
 
>  <cid> 
9214 
 
>  <dipole> 
0.0 
 
>  <excitation_energy_1> 
3.285 
 
>  <excitation_energy_2> 
3.879 
 
>  <excitation_energy_3> 
5.067 
 
>  <excitation_energy_4> 
5.148 
 
>  <homo_energy> 
-5.361 
 
>  <homo_lumo_gap> 
4.147 
 
>  <logP> 
3.334 
 
>  <lumo_energy> 
-1.214 
 
>  <melting_point> 
76.55 
 
>  <molecular_refractivity> 
50.87 
 
>  <oscillator_strength_1> 
0.0 
 
>  <oscillator_strength_2> 
0.1022 
 
>  <oscillator_strength_3> 
0.0 
 
>  <oscillator_strength_4> 
0.0 
 
>  <open_babel_can_smiles> 
c1ccc2c(c1)c1c2cccc1 
 
>  <mulliken_charges> 
20 
1   -0.135621 
2   -0.135781 
3   -0.135626 
4   -0.135776 
5   -0.244776 
6   -0.244806 
7   -0.244771 
8   -0.244795 
9   0.112855 
10   0.112817 
11   0.112825 
12   0.112953 
13   0.130383 
14   0.130385 
15   0.130384 
16   0.130387 
17   0.137236 
18   0.137248 
19   0.137234 
20   0.137246 
 
>  <lowdin_charges> 
20 
1   -0.154537 
2   -0.154544 
3   -0.154538 
4   -0.154544 
5   -0.1655 
6   -0.1655 
7   -0.1655 
8   -0.1655 
9   0.001562 
10   0.001562 
11   0.001562 
12   0.001564 
13   0.158762 
14   0.158763 
15   0.158762 
16   0.158762 
17   0.159715 
18   0.159716 
19   0.159715 
20   0.159716 
 
$$$$ 
 
