PCCDB-ID:  69486 
public computational chemistry database (PCCDB) project, http://pccdb.org 
 
 24 24  0  0  1  0  0  0  0  0999 V2000 
    1.0311    0.1271    0.1996 C   0  0  0  0  0  0  0  0  0  0  0  0 
    3.3099    1.6712   -3.3761 C   0  0  0  0  0  0  0  0  0  0  0  0 
    3.2310   -3.0651   -2.1103 C   0  0  0  0  0  0  0  0  0  0  0  0 
    2.5482    0.0510   -0.0491 C   0  0  2  0  0  0  0  0  0  0  0  0 
    2.6986    0.6551   -2.4185 C   0  0  2  0  0  0  0  0  0  0  0  0 
    2.6646   -1.6846   -1.7985 C   0  0  1  0  0  0  0  0  0  0  0  0 
    2.9689    1.0574   -1.0285 N   0  0  0  0  0  0  0  0  0  0  0  0 
    3.0517   -1.2872   -0.4334 N   0  0  0  0  0  0  0  0  0  0  0  0 
    3.1455   -0.7028   -2.7681 N   0  0  0  0  0  0  0  0  0  0  0  0 
    0.7586    1.1360    0.5249 H   0  0  0  0  0  0  0  0  0  0  0  0 
    0.7416   -0.5805    0.9860 H   0  0  0  0  0  0  0  0  0  0  0  0 
    0.4431   -0.1094   -0.6927 H   0  0  0  0  0  0  0  0  0  0  0  0 
    2.9350    2.6750   -3.1575 H   0  0  0  0  0  0  0  0  0  0  0  0 
    3.0704    1.4100   -4.4107 H   0  0  0  0  0  0  0  0  0  0  0  0 
    4.4043    1.6896   -3.2768 H   0  0  0  0  0  0  0  0  0  0  0  0 
    2.8205   -3.8211   -1.4304 H   0  0  0  0  0  0  0  0  0  0  0  0 
    4.3208   -3.0625   -1.9918 H   0  0  0  0  0  0  0  0  0  0  0  0 
    2.9842   -3.3494   -3.1375 H   0  0  0  0  0  0  0  0  0  0  0  0 
    3.0444    0.3079    0.8950 H   0  0  0  0  0  0  0  0  0  0  0  0 
    1.6090    0.6595   -2.5469 H   0  0  0  0  0  0  0  0  0  0  0  0 
    1.5676   -1.7192   -1.9274 H   0  0  0  0  0  0  0  0  0  0  0  0 
    3.9797    1.1685   -0.9349 H   0  0  0  0  0  0  0  0  0  0  0  0 
    2.7258   -1.9836    0.2373 H   0  0  0  0  0  0  0  0  0  0  0  0 
    4.1685   -0.7183   -2.7380 H   0  0  0  0  0  0  0  0  0  0  0  0 
  1 10  1  0  0  0  0 
  1 11  1  0  0  0  0 
  2 15  1  0  0  0  0 
  2 13  1  0  0  0  0 
  2  5  1  0  0  0  0 
  3 17  1  0  0  0  0 
  3  6  1  0  0  0  0 
  3 16  1  0  0  0  0 
  4  1  1  0  0  0  0 
  4 19  1  1  0  0  0 
  5 20  1  6  0  0  0 
  5  7  1  0  0  0  0 
  6 21  1  6  0  0  0 
  6  8  1  0  0  0  0 
  7 22  1  0  0  0  0 
  7  4  1  0  0  0  0 
  8  4  1  0  0  0  0 
  8 23  1  0  0  0  0 
  9 24  1  0  0  0  0 
  9  5  1  0  0  0  0 
  9  6  1  0  0  0  0 
 12  1  1  0  0  0  0 
 14  2  1  0  0  0  0 
 18  3  1  0  0  0  0 
M  END 
>  <HBA> 
3 
 
>  <HBD> 
3 
 
>  <TPSA> 
36.09 
 
>  <cid> 
69486 
 
>  <dipole> 
1.01 
 
>  <excitation_energy_1> 
5.319 
 
>  <excitation_energy_2> 
5.531 
 
>  <excitation_energy_3> 
5.553 
 
>  <excitation_energy_4> 
5.837 
 
>  <homo_energy> 
-5.717 
 
>  <homo_lumo_gap> 
7.845 
 
>  <logP> 
0.793 
 
>  <lumo_energy> 
2.128 
 
>  <melting_point> 
77.55 
 
>  <molecular_refractivity> 
48.99 
 
>  <oscillator_strength_1> 
0.0089 
 
>  <oscillator_strength_2> 
0.0178 
 
>  <oscillator_strength_3> 
0.0075 
 
>  <oscillator_strength_4> 
0.0139 
 
>  <open_babel_can_smiles> 
C[C@@H]1N[C@H](C)N[C@H](N1)C 
 
>  <mulliken_charges> 
24 
1   -0.445335 
2   -0.45404 
3   -0.454075 
4   0.134658 
5   0.109386 
6   0.152012 
7   -0.525476 
8   -0.564561 
9   -0.52171 
10   0.157618 
11   0.132182 
12   0.148407 
13   0.160683 
14   0.16117 
15   0.131404 
16   0.136724 
17   0.14829 
18   0.158601 
19   0.12974 
20   0.142246 
21   0.116086 
22   0.285202 
23   0.284424 
24   0.276363 
 
>  <lowdin_charges> 
24 
1   -0.466622 
2   -0.443214 
3   -0.447598 
4   -0.01198 
5   -0.018032 
6   -0.008602 
7   -0.360715 
8   -0.398749 
9   -0.359597 
10   0.159786 
11   0.146396 
12   0.150195 
13   0.160472 
14   0.160436 
15   0.141236 
16   0.149756 
17   0.150313 
18   0.159524 
19   0.140726 
20   0.138637 
21   0.11643 
22   0.247189 
23   0.252394 
24   0.241617 
 
$$$$ 
 
