PCCDB-ID:  26048 
public computational chemistry database (PCCDB) project, http://pccdb.org 
 
 26 26  0  0  0  0  0  0  0  0999 V2000 
    1.5746   -0.3051   -0.2545 C   0  0  0  0  0  0  0  0  0  0  0  0 
    5.4318    2.2819   -0.0854 C   0  0  0  0  0  0  0  0  0  0  0  0 
    5.3112    0.9464   -2.0891 C   0  0  0  0  0  0  0  0  0  0  0  0 
    4.6828   -4.0654   -1.8658 C   0  0  0  0  0  0  0  0  0  0  0  0 
    5.3951   -3.2553   -0.9775 C   0  0  0  0  0  0  0  0  0  0  0  0 
    3.4533   -3.6291   -2.3596 C   0  0  0  0  0  0  0  0  0  0  0  0 
    4.8887   -2.0162   -0.5919 C   0  0  0  0  0  0  0  0  0  0  0  0 
    2.9362   -2.3962   -1.9603 C   0  0  0  0  0  0  0  0  0  0  0  0 
    3.0511   -0.2840   -0.5898 C   0  0  0  0  0  0  0  0  0  0  0  0 
    3.6481   -1.5656   -1.0791 C   0  0  0  0  0  0  0  0  0  0  0  0 
    3.6413    0.8366   -0.3527 N   0  0  0  0  0  0  0  0  0  0  0  0 
    5.0133    0.9997   -0.6531 N   0  0  0  0  0  0  0  0  0  0  0  0 
    0.9579   -0.4317   -1.1537 H   0  0  0  0  0  0  0  0  0  0  0  0 
    1.3000    0.6409    0.2170 H   0  0  0  0  0  0  0  0  0  0  0  0 
    1.3335   -1.1365    0.4191 H   0  0  0  0  0  0  0  0  0  0  0  0 
    6.5168    2.3788   -0.1957 H   0  0  0  0  0  0  0  0  0  0  0  0 
    5.1831    2.2982    0.9777 H   0  0  0  0  0  0  0  0  0  0  0  0 
    4.9425    3.1425   -0.5724 H   0  0  0  0  0  0  0  0  0  0  0  0 
    6.3791    1.1408   -2.2270 H   0  0  0  0  0  0  0  0  0  0  0  0 
    4.7396    1.7033   -2.6536 H   0  0  0  0  0  0  0  0  0  0  0  0 
    5.0914   -0.0410   -2.4955 H   0  0  0  0  0  0  0  0  0  0  0  0 
    5.0832   -5.0292   -2.1689 H   0  0  0  0  0  0  0  0  0  0  0  0 
    6.3507   -3.5905   -0.5827 H   0  0  0  0  0  0  0  0  0  0  0  0 
    2.8910   -4.2501   -3.0519 H   0  0  0  0  0  0  0  0  0  0  0  0 
    5.4522   -1.3776    0.0790 H   0  0  0  0  0  0  0  0  0  0  0  0 
    1.9737   -2.0743   -2.3469 H   0  0  0  0  0  0  0  0  0  0  0  0 
  1 14  1  0  0  0  0 
  1 15  1  0  0  0  0 
  2 17  1  0  0  0  0 
  3 12  1  0  0  0  0 
  4  5  2  0  0  0  0 
  5  7  1  0  0  0  0 
  5 23  1  0  0  0  0 
  6  8  2  0  0  0  0 
  6  4  1  0  0  0  0 
  7 25  1  0  0  0  0 
  8 10  1  0  0  0  0 
  9 11  2  0  0  0  0 
  9  1  1  0  0  0  0 
 10  7  2  0  0  0  0 
 10  9  1  0  0  0  0 
 12 11  1  0  0  0  0 
 12  2  1  0  0  0  0 
 13  1  1  0  0  0  0 
 16  2  1  0  0  0  0 
 18  2  1  0  0  0  0 
 19  3  1  0  0  0  0 
 20  3  1  0  0  0  0 
 21  3  1  0  0  0  0 
 22  4  1  0  0  0  0 
 24  6  1  0  0  0  0 
 26  8  1  0  0  0  0 
M  END 
>  <HBA> 
2 
 
>  <HBD> 
0 
 
>  <TPSA> 
15.6 
 
>  <cid> 
26048 
 
>  <dipole> 
1.44 
 
>  <excitation_energy_1> 
3.513 
 
>  <excitation_energy_2> 
4.291 
 
>  <excitation_energy_3> 
4.915 
 
>  <excitation_energy_4> 
5.039 
 
>  <homo_energy> 
-5.244 
 
>  <homo_lumo_gap> 
4.449 
 
>  <logP> 
1.972 
 
>  <lumo_energy> 
-0.795 
 
>  <melting_point> 
25.66 
 
>  <molecular_refractivity> 
52.41 
 
>  <oscillator_strength_1> 
0.0614 
 
>  <oscillator_strength_2> 
0.009 
 
>  <oscillator_strength_3> 
0.0182 
 
>  <oscillator_strength_4> 
0.0361 
 
>  <open_babel_can_smiles> 
CN(/N=C(\c1ccccc1)/C)C 
 
>  <mulliken_charges> 
26 
1   -0.502296 
2   -0.272554 
3   -0.303261 
4   -0.124829 
5   -0.135453 
6   -0.134014 
7   -0.150891 
8   -0.174741 
9   0.238117 
10   0.081847 
11   -0.298211 
12   -0.286859 
13   0.155039 
14   0.174052 
15   0.159995 
16   0.141537 
17   0.161112 
18   0.129334 
19   0.150754 
20   0.134205 
21   0.170553 
22   0.131486 
23   0.132401 
24   0.131537 
25   0.160876 
26   0.130267 
 
>  <lowdin_charges> 
26 
1   -0.443578 
2   -0.354717 
3   -0.365313 
4   -0.152666 
5   -0.157501 
6   -0.158841 
7   -0.147585 
8   -0.158801 
9   0.030914 
10   -0.02719 
11   -0.125149 
12   -0.117063 
13   0.156984 
14   0.169646 
15   0.159882 
16   0.144666 
17   0.156428 
18   0.13134 
19   0.152739 
20   0.133246 
21   0.162018 
22   0.158335 
23   0.15866 
24   0.159871 
25   0.175151 
26   0.158526 
 
$$$$ 
 
