PCCDB-ID:  69388 
public computational chemistry database (PCCDB) project, http://pccdb.org 
 
 13 12  0  0  0  0  0  0  0  0999 V2000 
    2.1697    1.0534    1.6971 C   0  0  0  0  0  0  0  0  0  0  0  0 
    5.3831    2.0236   -2.3887 C   0  0  0  0  0  0  0  0  0  0  0  0 
    3.1189    0.5611    1.1380 C   0  0  0  0  0  0  0  0  0  0  0  0 
    4.2719   -0.0467    0.4775 C   0  0  0  0  0  0  0  0  0  0  0  0 
    5.3352    1.5241   -0.9647 C   0  0  0  0  0  0  0  0  0  0  0  0 
    5.9605    1.9821   -0.0366 O   0  0  0  0  0  0  0  0  0  0  0  0 
    4.4655    0.4818   -0.8551 O   0  0  0  0  0  0  0  0  0  0  0  0 
    1.3327    1.4900    2.1934 H   0  0  0  0  0  0  0  0  0  0  0  0 
    6.3082    2.5808   -2.5445 H   0  0  0  0  0  0  0  0  0  0  0  0 
    4.5344    2.6963   -2.5588 H   0  0  0  0  0  0  0  0  0  0  0  0 
    5.3039    1.1980   -3.0999 H   0  0  0  0  0  0  0  0  0  0  0  0 
    4.1185   -1.1206    0.3383 H   0  0  0  0  0  0  0  0  0  0  0  0 
    5.1814    0.1204    1.0613 H   0  0  0  0  0  0  0  0  0  0  0  0 
  1  8  1  0  0  0  0 
  2  5  1  0  0  0  0 
  3  1  3  0  0  0  0 
  4 13  1  0  0  0  0 
  4  3  1  0  0  0  0 
  5  7  1  0  0  0  0 
  5  6  2  0  0  0  0 
  7  4  1  0  0  0  0 
  9  2  1  0  0  0  0 
 10  2  1  0  0  0  0 
 11  2  1  0  0  0  0 
 12  4  1  0  0  0  0 
M  END 
>  <HBA> 
2 
 
>  <HBD> 
0 
 
>  <TPSA> 
26.3 
 
>  <cid> 
69388 
 
>  <dipole> 
1.63 
 
>  <excitation_energy_1> 
5.841 
 
>  <excitation_energy_2> 
6.11 
 
>  <excitation_energy_3> 
6.583 
 
>  <excitation_energy_4> 
6.825 
 
>  <homo_energy> 
-7.415 
 
>  <homo_lumo_gap> 
7.625 
 
>  <logP> 
0.183 
 
>  <lumo_energy> 
0.21 
 
>  <melting_point> 
3.89 
 
>  <molecular_refractivity> 
25.6 
 
>  <oscillator_strength_1> 
0.0009 
 
>  <oscillator_strength_2> 
0.0005 
 
>  <oscillator_strength_3> 
0.0251 
 
>  <oscillator_strength_4> 
0.0029 
 
>  <open_babel_can_smiles> 
CC(=O)OCC#C 
 
>  <mulliken_charges> 
13 
1   -0.460831 
2   -0.525631 
3   0.330918 
4   -0.193659 
5   0.603778 
6   -0.455181 
7   -0.444449 
8   0.197104 
9   0.185131 
10   0.190817 
11   0.180528 
12   0.185009 
13   0.206465 
 
>  <lowdin_charges> 
13 
1   -0.226912 
2   -0.465005 
3   -0.049555 
4   -0.117131 
5   0.207673 
6   -0.257262 
7   -0.197252 
8   0.209309 
9   0.177916 
10   0.184117 
11   0.17632 
12   0.173069 
13   0.184714 
 
$$$$ 
 
