PCCDB-ID:  8453 
public computational chemistry database (PCCDB) project, http://pccdb.org 
 
 12 12  0  0  0  0  0  0  0  0999 V2000 
   -0.3277    1.1595    0.1234 C   0  0  0  0  0  0  0  0  0  0  0  0 
   -1.2500   -0.0771   -0.0946 C   0  0  0  0  0  0  0  0  0  0  0  0 
    0.9466   -0.6121    0.0114 C   0  0  0  0  0  0  0  0  0  0  0  0 
    1.0492    0.6623   -0.0361 N   0  0  0  0  0  0  0  0  0  0  0  0 
   -0.3099   -1.1710    0.1959 N   0  0  0  0  0  0  0  0  0  0  0  0 
    1.9747   -1.4776   -0.0675 O   0  0  0  0  0  0  0  0  0  0  0  0 
   -0.4571    1.5689    1.1351 H   0  0  0  0  0  0  0  0  0  0  0  0 
   -0.5406    1.9658   -0.5860 H   0  0  0  0  0  0  0  0  0  0  0  0 
   -1.6156   -0.1262   -1.1311 H   0  0  0  0  0  0  0  0  0  0  0  0 
   -2.1112   -0.0993    0.5796 H   0  0  0  0  0  0  0  0  0  0  0  0 
   -0.4703   -2.0754   -0.2322 H   0  0  0  0  0  0  0  0  0  0  0  0 
    2.7746   -0.9293   -0.1477 H   0  0  0  0  0  0  0  0  0  0  0  0 
  1  7  1  0  0  0  0 
  2  1  1  0  0  0  0 
  2  5  1  0  0  0  0 
  2 10  1  0  0  0  0 
  3  5  1  0  0  0  0 
  4  3  2  0  0  0  0 
  4  1  1  0  0  0  0 
  6  3  1  0  0  0  0 
  8  1  1  0  0  0  0 
  9  2  1  0  0  0  0 
 11  5  1  0  0  0  0 
 12  6  1  0  0  0  0 
M  END 
>  <HBA> 
3 
 
>  <HBD> 
2 
 
>  <TPSA> 
41.13 
 
>  <cid> 
8453 
 
>  <dipole> 
1.73 
 
>  <excitation_energy_1> 
5.254 
 
>  <excitation_energy_2> 
5.705 
 
>  <excitation_energy_3> 
6.113 
 
>  <excitation_energy_4> 
6.377 
 
>  <homo_energy> 
-5.897 
 
>  <homo_lumo_gap> 
7.486 
 
>  <logP> 
-0.043 
 
>  <lumo_energy> 
1.589 
 
>  <melting_point> 
84.09 
 
>  <molecular_refractivity> 
28.44 
 
>  <oscillator_strength_1> 
0.0014 
 
>  <oscillator_strength_2> 
0.0003 
 
>  <oscillator_strength_3> 
0.0034 
 
>  <oscillator_strength_4> 
0.0312 
 
>  <open_babel_can_smiles> 
OC1=NCCN1 
 
>  <mulliken_charges> 
12 
1   -0.151896 
2   -0.151223 
3   0.65531 
4   -0.488674 
5   -0.592917 
6   -0.610096 
7   0.148834 
8   0.146507 
9   0.142562 
10   0.153547 
11   0.324842 
12   0.423202 
 
>  <lowdin_charges> 
12 
1   -0.199683 
2   -0.207098 
3   0.141061 
4   -0.294226 
5   -0.312883 
6   -0.35922 
7   0.142829 
8   0.148702 
9   0.135109 
10   0.151441 
11   0.280617 
12   0.373351 
 
$$$$ 
 
