PCCDB-ID:  62513 
public computational chemistry database (PCCDB) project, http://pccdb.org 
 
 31 32  0  0  0  0  0  0  0  0999 V2000 
    1.1281   -0.0004   -0.4698 C   0  0  0  0  0  0  0  0  0  0  0  0 
    9.3801    0.2411    1.4422 C   0  0  0  0  0  0  0  0  0  0  0  0 
    8.6472    0.4152    0.2668 C   0  0  0  0  0  0  0  0  0  0  0  0 
    8.7086   -0.0530    2.6275 C   0  0  0  0  0  0  0  0  0  0  0  0 
    7.2585    0.2959    0.2809 C   0  0  0  0  0  0  0  0  0  0  0  0 
    7.3170   -0.1725    2.6408 C   0  0  0  0  0  0  0  0  0  0  0  0 
    4.5650   -1.2360    0.4646 C   0  0  0  0  0  0  0  0  0  0  0  0 
    4.3758    1.2256    0.9971 C   0  0  0  0  0  0  0  0  0  0  0  0 
    3.0442   -1.2571    0.2903 C   0  0  0  0  0  0  0  0  0  0  0  0 
    2.8636    1.0943    0.8032 C   0  0  0  0  0  0  0  0  0  0  0  0 
    4.5248   -0.4477    2.7900 C   0  0  0  0  0  0  0  0  0  0  0  0 
    6.5713    0.0004    1.4687 C   0  0  0  0  0  0  0  0  0  0  0  0 
    5.0360   -0.1161    1.4439 C   0  0  0  0  0  0  0  0  0  0  0  0 
    4.0969   -0.7091    3.8376 N   0  0  0  0  0  0  0  0  0  0  0  0 
    2.5508    0.0426   -0.1640 N   0  0  0  0  0  0  0  0  0  0  0  0 
    0.9398   -0.7560   -1.2405 H   0  0  0  0  0  0  0  0  0  0  0  0 
    0.8055    0.9711   -0.8601 H   0  0  0  0  0  0  0  0  0  0  0  0 
    0.4985   -0.2427    0.4084 H   0  0  0  0  0  0  0  0  0  0  0  0 
   10.4626    0.3333    1.4320 H   0  0  0  0  0  0  0  0  0  0  0  0 
    9.1556    0.6450   -0.6658 H   0  0  0  0  0  0  0  0  0  0  0  0 
    9.2643   -0.1919    3.5510 H   0  0  0  0  0  0  0  0  0  0  0  0 
    6.7107    0.4379   -0.6465 H   0  0  0  0  0  0  0  0  0  0  0  0 
    6.8123   -0.4023    3.5740 H   0  0  0  0  0  0  0  0  0  0  0  0 
    5.0288   -1.0477   -0.5083 H   0  0  0  0  0  0  0  0  0  0  0  0 
    4.9210   -2.2089    0.8201 H   0  0  0  0  0  0  0  0  0  0  0  0 
    4.6006    2.0080    1.7299 H   0  0  0  0  0  0  0  0  0  0  0  0 
    4.8299    1.5207    0.0461 H   0  0  0  0  0  0  0  0  0  0  0  0 
    2.5597   -1.5734    1.2356 H   0  0  0  0  0  0  0  0  0  0  0  0 
    2.7848   -2.0070   -0.4665 H   0  0  0  0  0  0  0  0  0  0  0  0 
    2.4712    2.0434    0.4192 H   0  0  0  0  0  0  0  0  0  0  0  0 
    2.3722    0.9140    1.7802 H   0  0  0  0  0  0  0  0  0  0  0  0 
  1 15  1  0  0  0  0 
  1 18  1  0  0  0  0 
  2  4  2  0  0  0  0 
  3  5  2  0  0  0  0 
  3  2  1  0  0  0  0 
  4  6  1  0  0  0  0 
  4 21  1  0  0  0  0 
  5 12  1  0  0  0  0 
  6 23  1  0  0  0  0 
  7 25  1  0  0  0  0 
  7 13  1  0  0  0  0 
  8 13  1  0  0  0  0 
  8 26  1  0  0  0  0 
  9  7  1  0  0  0  0 
  9 28  1  0  0  0  0 
 10  8  1  0  0  0  0 
 10 31  1  0  0  0  0 
 11 14  3  0  0  0  0 
 12  6  2  0  0  0  0 
 13 12  1  0  0  0  0 
 13 11  1  0  0  0  0 
 15  9  1  0  0  0  0 
 15 10  1  0  0  0  0 
 16  1  1  0  0  0  0 
 17  1  1  0  0  0  0 
 19  2  1  0  0  0  0 
 20  3  1  0  0  0  0 
 22  5  1  0  0  0  0 
 24  7  1  0  0  0  0 
 27  8  1  0  0  0  0 
 29  9  1  0  0  0  0 
 30 10  1  0  0  0  0 
M  END 
>  <HBA> 
2 
 
>  <HBD> 
0 
 
>  <TPSA> 
27.03 
 
>  <cid> 
62513 
 
>  <dipole> 
3.22 
 
>  <excitation_energy_1> 
5.001 
 
>  <excitation_energy_2> 
5.153 
 
>  <excitation_energy_3> 
5.327 
 
>  <excitation_energy_4> 
5.376 
 
>  <homo_energy> 
-5.97 
 
>  <homo_lumo_gap> 
5.674 
 
>  <logP> 
2.111 
 
>  <lumo_energy> 
-0.297 
 
>  <melting_point> 
69.23 
 
>  <molecular_refractivity> 
64.58 
 
>  <oscillator_strength_1> 
0.0 
 
>  <oscillator_strength_2> 
0.0001 
 
>  <oscillator_strength_3> 
0.0007 
 
>  <oscillator_strength_4> 
0.0016 
 
>  <open_babel_can_smiles> 
CN1CCC(CC1)(C#N)c1ccccc1 
 
>  <mulliken_charges> 
31 
1   -0.29371 
2   -0.122246 
3   -0.137561 
4   -0.13774 
5   -0.17823 
6   -0.186433 
7   -0.264833 
8   -0.263762 
9   -0.134409 
10   -0.134463 
11   0.360032 
12   0.158722 
13   -0.081398 
14   -0.508285 
15   -0.383975 
16   0.149389 
17   0.149372 
18   0.125465 
19   0.132963 
20   0.133553 
21   0.137026 
22   0.13428 
23   0.158436 
24   0.156912 
25   0.15752 
26   0.157202 
27   0.156978 
28   0.135707 
29   0.143862 
30   0.14385 
31   0.135775 
 
>  <lowdin_charges> 
31 
1   -0.356679 
2   -0.152108 
3   -0.153545 
4   -0.151443 
5   -0.166092 
6   -0.166871 
7   -0.269325 
8   -0.270248 
9   -0.205949 
10   -0.204522 
11   -0.010592 
12   -0.001126 
13   0.005062 
14   -0.138585 
15   -0.190467 
16   0.15123 
17   0.150471 
18   0.125723 
19   0.157746 
20   0.159848 
21   0.161612 
22   0.158149 
23   0.174234 
24   0.156463 
25   0.160027 
26   0.160864 
27   0.156838 
28   0.128757 
29   0.151578 
30   0.150638 
31   0.128311 
 
$$$$ 
 
