PCCDB-ID:  58286 
public computational chemistry database (PCCDB) project, http://pccdb.org 
 
 39 38  0  0  0  0  0  0  0  0999 V2000 
    3.6757    2.8394    1.4178 C   0  0  0  0  0  0  0  0  0  0  0  0 
    8.0717   -0.4160    1.2505 C   0  0  0  0  0  0  0  0  0  0  0  0 
    2.1573   -2.4767   -7.1730 C   0  0  0  0  0  0  0  0  0  0  0  0 
    2.1515   -0.1815   -6.2509 C   0  0  0  0  0  0  0  0  0  0  0  0 
    3.9881    1.3794    1.1352 C   0  0  0  0  0  0  0  0  0  0  0  0 
    7.1897    0.1192    0.1331 C   0  0  0  0  0  0  0  0  0  0  0  0 
    5.4994   -1.3539   -2.6598 C   0  0  0  0  0  0  0  0  0  0  0  0 
    5.1494    0.0184   -2.0757 C   0  0  0  0  0  0  0  0  0  0  0  0 
    5.6814   -1.3336   -4.1854 C   0  0  0  0  0  0  0  0  0  0  0  0 
    3.9768   -1.7079   -5.7361 C   0  0  0  0  0  0  0  0  0  0  0  0 
    4.8824   -0.0209   -0.5726 C   0  0  0  0  0  0  0  0  0  0  0  0 
    4.4676   -0.9146   -4.8639 N   0  0  0  0  0  0  0  0  0  0  0  0 
    2.8814   -1.4102   -6.5095 N   0  0  0  0  0  0  0  0  0  0  0  0 
    4.5517    1.2903   -0.1718 O   0  0  0  0  0  0  0  0  0  0  0  0 
    5.9400   -0.5690    0.1998 O   0  0  0  0  0  0  0  0  0  0  0  0 
    3.2294    2.9497    2.4124 H   0  0  0  0  0  0  0  0  0  0  0  0 
    2.9745    3.2347    0.6756 H   0  0  0  0  0  0  0  0  0  0  0  0 
    4.5886    3.4432    1.3793 H   0  0  0  0  0  0  0  0  0  0  0  0 
    9.0558    0.0658    1.2252 H   0  0  0  0  0  0  0  0  0  0  0  0 
    8.2125   -1.4970    1.1453 H   0  0  0  0  0  0  0  0  0  0  0  0 
    7.6163   -0.2263    2.2281 H   0  0  0  0  0  0  0  0  0  0  0  0 
    1.7688   -2.1257   -8.1366 H   0  0  0  0  0  0  0  0  0  0  0  0 
    1.3062   -2.8430   -6.5759 H   0  0  0  0  0  0  0  0  0  0  0  0 
    2.8291   -3.3191   -7.3630 H   0  0  0  0  0  0  0  0  0  0  0  0 
    1.6252    0.1257   -7.1611 H   0  0  0  0  0  0  0  0  0  0  0  0 
    2.8607    0.5919   -5.9533 H   0  0  0  0  0  0  0  0  0  0  0  0 
    1.4135   -0.2998   -5.4420 H   0  0  0  0  0  0  0  0  0  0  0  0 
    3.0713    0.7685    1.1828 H   0  0  0  0  0  0  0  0  0  0  0  0 
    4.6887    0.9757    1.8783 H   0  0  0  0  0  0  0  0  0  0  0  0 
    7.6710   -0.0504   -0.8420 H   0  0  0  0  0  0  0  0  0  0  0  0 
    7.0312    1.1996    0.2424 H   0  0  0  0  0  0  0  0  0  0  0  0 
    4.7055   -2.0724   -2.4116 H   0  0  0  0  0  0  0  0  0  0  0  0 
    6.4188   -1.7367   -2.1988 H   0  0  0  0  0  0  0  0  0  0  0  0 
    4.2526    0.4078   -2.5670 H   0  0  0  0  0  0  0  0  0  0  0  0 
    5.9500    0.7405   -2.2824 H   0  0  0  0  0  0  0  0  0  0  0  0 
    6.0258   -2.3302   -4.5197 H   0  0  0  0  0  0  0  0  0  0  0  0 
    6.4848   -0.6234   -4.4353 H   0  0  0  0  0  0  0  0  0  0  0  0 
    4.4150   -2.6911   -5.9708 H   0  0  0  0  0  0  0  0  0  0  0  0 
    4.0425   -0.6990   -0.3552 H   0  0  0  0  0  0  0  0  0  0  0  0 
  1 16  1  0  0  0  0 
  2 21  1  0  0  0  0 
  3 23  1  0  0  0  0 
  3 13  1  0  0  0  0 
  4 26  1  0  0  0  0 
  4 27  1  0  0  0  0 
  5 28  1  0  0  0  0 
  5  1  1  0  0  0  0 
  5 29  1  0  0  0  0 
  6 15  1  0  0  0  0 
  6 31  1  0  0  0  0 
  6  2  1  0  0  0  0 
  7 32  1  0  0  0  0 
  7 33  1  0  0  0  0 
  7  8  1  0  0  0  0 
  8 11  1  0  0  0  0 
  9  7  1  0  0  0  0 
 10 12  2  0  0  0  0 
 11 39  1  0  0  0  0 
 11 14  1  0  0  0  0 
 11 15  1  0  0  0  0 
 12  9  1  0  0  0  0 
 13  4  1  0  0  0  0 
 13 10  1  0  0  0  0 
 14  5  1  0  0  0  0 
 17  1  1  0  0  0  0 
 18  1  1  0  0  0  0 
 19  2  1  0  0  0  0 
 20  2  1  0  0  0  0 
 22  3  1  0  0  0  0 
 24  3  1  0  0  0  0 
 25  4  1  0  0  0  0 
 30  6  1  0  0  0  0 
 34  8  1  0  0  0  0 
 35  8  1  0  0  0  0 
 36  9  1  0  0  0  0 
 37  9  1  0  0  0  0 
 38 10  1  0  0  0  0 
M  END 
>  <HBA> 
4 
 
>  <HBD> 
0 
 
>  <TPSA> 
34.06 
 
>  <cid> 
58286 
 
>  <dipole> 
2.19 
 
>  <excitation_energy_1> 
5.127 
 
>  <excitation_energy_2> 
5.504 
 
>  <excitation_energy_3> 
5.696 
 
>  <excitation_energy_4> 
5.697 
 
>  <homo_energy> 
-5.619 
 
>  <homo_lumo_gap> 
6.664 
 
>  <logP> 
1.756 
 
>  <lumo_energy> 
1.045 
 
>  <melting_point> 
-27.28 
 
>  <molecular_refractivity> 
63.74 
 
>  <oscillator_strength_1> 
0.0188 
 
>  <oscillator_strength_2> 
0.1481 
 
>  <oscillator_strength_3> 
0.0572 
 
>  <oscillator_strength_4> 
0.0005 
 
>  <open_babel_can_smiles> 
CCOC(OCC)CCC/N=C/N(C)C 
 
>  <mulliken_charges> 
39 
1   -0.45436 
2   -0.453282 
3   -0.308289 
4   -0.305119 
5   -0.013246 
6   -0.022082 
7   -0.253654 
8   -0.295425 
9   -0.137569 
10   0.255247 
11   0.369983 
12   -0.429893 
13   -0.371304 
14   -0.489509 
15   -0.489834 
16   0.141176 
17   0.156325 
18   0.155151 
19   0.139639 
20   0.155073 
21   0.152831 
22   0.15746 
23   0.14905 
24   0.160197 
25   0.144115 
26   0.193447 
27   0.146579 
28   0.1195 
29   0.138223 
30   0.123677 
31   0.141277 
32   0.12781 
33   0.137383 
34   0.167476 
35   0.138027 
36   0.103921 
37   0.13232 
38   0.105684 
39   0.111996 
 
>  <lowdin_charges> 
39 
1   -0.449174 
2   -0.445107 
3   -0.34918 
4   -0.353988 
5   -0.128252 
6   -0.129043 
7   -0.28054 
8   -0.296933 
9   -0.194519 
10   -0.039873 
11   0.095152 
12   -0.248617 
13   -0.108585 
14   -0.269952 
15   -0.279054 
16   0.15228 
17   0.156748 
18   0.155244 
19   0.151195 
20   0.153115 
21   0.152892 
22   0.151692 
23   0.14112 
24   0.158806 
25   0.149398 
26   0.17849 
27   0.1431 
28   0.12675 
29   0.136546 
30   0.127318 
31   0.135126 
32   0.140743 
33   0.145787 
34   0.165869 
35   0.148025 
36   0.118254 
37   0.138697 
38   0.122166 
39   0.128302 
 
$$$$ 
 
