PCCDB-ID:  68117 
public computational chemistry database (PCCDB) project, http://pccdb.org 
 
 22 22  0  0  0  0  0  0  0  0999 V2000 
    3.6730    1.3957   -2.4162 C   0  0  0  0  0  0  0  0  0  0  0  0 
    5.0106    0.9974   -1.8202 C   0  0  0  0  0  0  0  0  0  0  0  0 
    7.8656   -2.6820   -1.4024 C   0  0  0  0  0  0  0  0  0  0  0  0 
    9.0628   -1.9895   -1.4301 C   0  0  0  0  0  0  0  0  0  0  0  0 
    6.6819   -2.0214   -1.7687 C   0  0  0  0  0  0  0  0  0  0  0  0 
   10.3587    0.0788   -1.8732 C   0  0  0  0  0  0  0  0  0  0  0  0 
    9.0955   -0.6392   -1.8349 C   0  0  0  0  0  0  0  0  0  0  0  0 
    6.6776   -0.6891   -2.1704 C   0  0  0  0  0  0  0  0  0  0  0  0 
    7.8999    0.0208   -2.2215 C   0  0  0  0  0  0  0  0  0  0  0  0 
   10.4883    1.2547   -2.2264 O   0  0  0  0  0  0  0  0  0  0  0  0 
    7.8960    1.2973   -2.6390 O   0  0  0  0  0  0  0  0  0  0  0  0 
    5.4990   -0.1278   -2.5801 O   0  0  0  0  0  0  0  0  0  0  0  0 
    3.2593    2.2522   -1.8725 H   0  0  0  0  0  0  0  0  0  0  0  0 
    2.9584    0.5682   -2.3588 H   0  0  0  0  0  0  0  0  0  0  0  0 
    3.7915    1.6769   -3.4674 H   0  0  0  0  0  0  0  0  0  0  0  0 
    4.9010    0.6950   -0.7689 H   0  0  0  0  0  0  0  0  0  0  0  0 
    5.7291    1.8206   -1.8720 H   0  0  0  0  0  0  0  0  0  0  0  0 
    7.8327   -3.7229   -1.0967 H   0  0  0  0  0  0  0  0  0  0  0  0 
    9.9938   -2.4733   -1.1442 H   0  0  0  0  0  0  0  0  0  0  0  0 
    5.7282   -2.5408   -1.7552 H   0  0  0  0  0  0  0  0  0  0  0  0 
   11.2519   -0.4942   -1.5567 H   0  0  0  0  0  0  0  0  0  0  0  0 
    8.8361    1.6149   -2.6005 H   0  0  0  0  0  0  0  0  0  0  0  0 
  1 14  1  0  0  0  0 
  1 13  1  0  0  0  0 
  1  2  1  0  0  0  0 
  2 16  1  0  0  0  0 
  3 18  1  0  0  0  0 
  4  3  1  0  0  0  0 
  4 19  1  0  0  0  0 
  5 20  1  0  0  0  0 
  5  3  2  0  0  0  0 
  6  7  1  0  0  0  0 
  6 21  1  0  0  0  0 
  7  4  2  0  0  0  0 
  8  5  1  0  0  0  0 
  9  8  2  0  0  0  0 
  9  7  1  0  0  0  0 
 10  6  2  0  0  0  0 
 11 22  1  0  0  0  0 
 11  9  1  0  0  0  0 
 12  8  1  0  0  0  0 
 12  2  1  0  0  0  0 
 15  1  1  0  0  0  0 
 17  2  1  0  0  0  0 
M  END 
>  <HBA> 
3 
 
>  <HBD> 
1 
 
>  <TPSA> 
46.53 
 
>  <cid> 
68117 
 
>  <dipole> 
2.52 
 
>  <excitation_energy_1> 
3.64 
 
>  <excitation_energy_2> 
3.959 
 
>  <excitation_energy_3> 
4.676 
 
>  <excitation_energy_4> 
5.104 
 
>  <homo_energy> 
-6.133 
 
>  <homo_lumo_gap> 
4.242 
 
>  <logP> 
1.603 
 
>  <lumo_energy> 
-1.891 
 
>  <melting_point> 
83.51 
 
>  <molecular_refractivity> 
45.15 
 
>  <oscillator_strength_1> 
0.054 
 
>  <oscillator_strength_2> 
0.0021 
 
>  <oscillator_strength_3> 
0.1148 
 
>  <oscillator_strength_4> 
0.0737 
 
>  <open_babel_can_smiles> 
CCOc1cccc(c1O)C=O 
 
>  <mulliken_charges> 
22 
1   -0.455848 
2   -0.034119 
3   -0.143447 
4   -0.189972 
5   -0.169918 
6   0.199665 
7   0.056468 
8   0.346461 
9   0.268707 
10   -0.468534 
11   -0.644161 
12   -0.531289 
13   0.147025 
14   0.156329 
15   0.165257 
16   0.129101 
17   0.168176 
18   0.138258 
19   0.13976 
20   0.147838 
21   0.129429 
22   0.444816 
 
>  <lowdin_charges> 
22 
1   -0.447858 
2   -0.120928 
3   -0.173913 
4   -0.142279 
5   -0.145104 
6   0.050816 
7   -0.10414 
8   0.065927 
9   0.110977 
10   -0.270224 
11   -0.357572 
12   -0.223284 
13   0.157318 
14   0.156308 
15   0.159348 
16   0.131271 
17   0.152369 
18   0.162151 
19   0.163014 
20   0.171994 
21   0.136527 
22   0.367283 
 
$$$$ 
 
