PCCDB-ID:  10964 
public computational chemistry database (PCCDB) project, http://pccdb.org 
 
  9  8  0  0  0  0  0  0  0  0999 V2000 
    1.0950    0.1763    0.0921 C   0  0  0  0  0  0  0  0  0  0  0  0 
    0.5092    1.4984   -0.3674 C   0  0  0  0  0  0  0  0  0  0  0  0 
    2.6106    0.1122    0.0187 C   0  0  0  0  0  0  0  0  0  0  0  0 
    1.1547    2.4030   -0.8467 O   0  0  0  0  0  0  0  0  0  0  0  0 
    3.2943   -0.3736    0.8907 O   0  0  0  0  0  0  0  0  0  0  0  0 
    0.6746   -0.6111   -0.5568 H   0  0  0  0  0  0  0  0  0  0  0  0 
    0.7608   -0.0578    1.1105 H   0  0  0  0  0  0  0  0  0  0  0  0 
   -0.5917    1.5883   -0.2366 H   0  0  0  0  0  0  0  0  0  0  0  0 
    3.0596    0.5290   -0.9040 H   0  0  0  0  0  0  0  0  0  0  0  0 
  1  7  1  0  0  0  0 
  2  8  1  0  0  0  0 
  2  1  1  0  0  0  0 
  3  1  1  0  0  0  0 
  3  5  2  0  0  0  0 
  4  2  2  0  0  0  0 
  6  1  1  0  0  0  0 
  9  3  1  0  0  0  0 
M  END 
>  <HBA> 
2 
 
>  <HBD> 
0 
 
>  <TPSA> 
34.14 
 
>  <cid> 
10964 
 
>  <dipole> 
3.03 
 
>  <excitation_energy_1> 
4.092 
 
>  <excitation_energy_2> 
4.256 
 
>  <excitation_energy_3> 
5.269 
 
>  <excitation_energy_4> 
5.584 
 
>  <homo_energy> 
-6.999 
 
>  <homo_lumo_gap> 
5.837 
 
>  <logP> 
-0.226 
 
>  <lumo_energy> 
-1.162 
 
>  <melting_point> 
38.88 
 
>  <molecular_refractivity> 
16.93 
 
>  <oscillator_strength_1> 
0.0003 
 
>  <oscillator_strength_2> 
0.0002 
 
>  <oscillator_strength_3> 
0.0052 
 
>  <oscillator_strength_4> 
0.0052 
 
>  <open_babel_can_smiles> 
O=CCC=O 
 
>  <mulliken_charges> 
9 
1   -0.436524 
2   0.252801 
3   0.275602 
4   -0.368334 
5   -0.376279 
6   0.196573 
7   0.198302 
8   0.121732 
9   0.136127 
 
>  <lowdin_charges> 
9 
1   -0.352554 
2   0.064824 
3   0.067083 
4   -0.208977 
5   -0.204459 
6   0.191641 
7   0.184703 
8   0.1227 
9   0.135039 
 
$$$$ 
 
