PCCDB-ID:  60429 
public computational chemistry database (PCCDB) project, http://pccdb.org 
 
 33 33  0  0  0  0  0  0  0  0999 V2000 
    1.3356   -0.7220    2.3033 C   0  0  0  0  0  0  0  0  0  0  0  0 
    1.3418   -4.0585    0.6230 C   0  0  0  0  0  0  0  0  0  0  0  0 
    2.3081   -1.8995    2.4916 C   0  0  0  0  0  0  0  0  0  0  0  0 
    2.2071   -2.8649    0.2162 C   0  0  0  0  0  0  0  0  0  0  0  0 
    8.3537   -6.1782    3.2365 C   0  0  0  0  0  0  0  0  0  0  0  0 
    8.5957   -4.7767    3.0947 C   0  0  0  0  0  0  0  0  0  0  0  0 
    5.2434   -1.2696    1.7811 C   0  0  0  0  0  0  0  0  0  0  0  0 
    4.0518   -1.3936    0.8256 C   0  0  0  0  0  0  0  0  0  0  0  0 
    7.0359   -6.3677    2.9425 C   0  0  0  0  0  0  0  0  0  0  0  0 
    7.4085   -4.2135    2.7232 C   0  0  0  0  0  0  0  0  0  0  0  0 
    7.0568   -2.8059    2.4372 C   0  0  0  0  0  0  0  0  0  0  0  0 
    5.7602   -2.5890    2.0870 N   0  0  0  0  0  0  0  0  0  0  0  0 
    3.0504   -2.3533    1.3043 N   0  0  0  0  0  0  0  0  0  0  0  0 
    7.9058   -1.9186    2.5153 O   0  0  0  0  0  0  0  0  0  0  0  0 
    6.4408   -5.1849    2.6269 O   0  0  0  0  0  0  0  0  0  0  0  0 
    0.8615   -0.4785    3.2610 H   0  0  0  0  0  0  0  0  0  0  0  0 
    0.5373   -0.9582    1.5909 H   0  0  0  0  0  0  0  0  0  0  0  0 
    1.8442    0.1814    1.9494 H   0  0  0  0  0  0  0  0  0  0  0  0 
    0.8650   -4.4890   -0.2644 H   0  0  0  0  0  0  0  0  0  0  0  0 
    0.5436   -3.7806    1.3192 H   0  0  0  0  0  0  0  0  0  0  0  0 
    1.9546   -4.8338    1.0959 H   0  0  0  0  0  0  0  0  0  0  0  0 
    1.7593   -2.7593    2.8898 H   0  0  0  0  0  0  0  0  0  0  0  0 
    3.0436   -1.6379    3.2599 H   0  0  0  0  0  0  0  0  0  0  0  0 
    1.5646   -2.0790   -0.2234 H   0  0  0  0  0  0  0  0  0  0  0  0 
    2.8862   -3.1846   -0.5831 H   0  0  0  0  0  0  0  0  0  0  0  0 
    9.0638   -6.9424    3.5200 H   0  0  0  0  0  0  0  0  0  0  0  0 
    9.5203   -4.2386    3.2429 H   0  0  0  0  0  0  0  0  0  0  0  0 
    4.9620   -0.7371    2.7014 H   0  0  0  0  0  0  0  0  0  0  0  0 
    6.0393   -0.6817    1.3147 H   0  0  0  0  0  0  0  0  0  0  0  0 
    4.4244   -1.7684   -0.1343 H   0  0  0  0  0  0  0  0  0  0  0  0 
    3.6384   -0.3872    0.6346 H   0  0  0  0  0  0  0  0  0  0  0  0 
    6.3978   -7.2378    2.9080 H   0  0  0  0  0  0  0  0  0  0  0  0 
    5.0909   -3.3496    2.0665 H   0  0  0  0  0  0  0  0  0  0  0  0 
  1  3  1  0  0  0  0 
  1 16  1  0  0  0  0 
  2 21  1  0  0  0  0 
  2 20  1  0  0  0  0 
  3 22  1  0  0  0  0 
  3 23  1  0  0  0  0 
  4  2  1  0  0  0  0 
  4 13  1  0  0  0  0 
  5 26  1  0  0  0  0 
  6  5  1  0  0  0  0 
  6 27  1  0  0  0  0 
  7 12  1  0  0  0  0 
  7 28  1  0  0  0  0 
  8 13  1  0  0  0  0 
  8  7  1  0  0  0  0 
  9  5  2  0  0  0  0 
 10  6  2  0  0  0  0 
 11 14  2  0  0  0  0 
 11 10  1  0  0  0  0 
 12 11  1  0  0  0  0 
 13  3  1  0  0  0  0 
 15 10  1  0  0  0  0 
 15  9  1  0  0  0  0 
 17  1  1  0  0  0  0 
 18  1  1  0  0  0  0 
 19  2  1  0  0  0  0 
 24  4  1  0  0  0  0 
 25  4  1  0  0  0  0 
 29  7  1  0  0  0  0 
 30  8  1  0  0  0  0 
 31  8  1  0  0  0  0 
 32  9  1  0  0  0  0 
 33 12  1  0  0  0  0 
M  END 
>  <HBA> 
4 
 
>  <HBD> 
1 
 
>  <TPSA> 
45.48 
 
>  <cid> 
60429 
 
>  <dipole> 
3.97 
 
>  <excitation_energy_1> 
4.516 
 
>  <excitation_energy_2> 
4.734 
 
>  <excitation_energy_3> 
5.169 
 
>  <excitation_energy_4> 
5.293 
 
>  <homo_energy> 
-5.91 
 
>  <homo_lumo_gap> 
5.333 
 
>  <logP> 
1.742 
 
>  <lumo_energy> 
-0.577 
 
>  <melting_point> 
63.94 
 
>  <molecular_refractivity> 
58.64 
 
>  <oscillator_strength_1> 
0.0089 
 
>  <oscillator_strength_2> 
0.0123 
 
>  <oscillator_strength_3> 
0.3553 
 
>  <oscillator_strength_4> 
0.0083 
 
>  <open_babel_can_smiles> 
CCN(CCNC(=O)c1ccco1)CC 
 
>  <mulliken_charges> 
33 
1   -0.461532 
2   -0.458919 
3   -0.142423 
4   -0.107635 
5   -0.190393 
6   -0.169232 
7   -0.122223 
8   -0.140679 
9   0.095058 
10   0.278576 
11   0.570213 
12   -0.625971 
13   -0.400709 
14   -0.545595 
15   -0.464199 
16   0.148307 
17   0.150949 
18   0.15132 
19   0.147781 
20   0.150589 
21   0.154805 
22   0.148142 
23   0.149011 
24   0.118804 
25   0.141168 
26   0.147155 
27   0.1659 
28   0.150992 
29   0.178224 
30   0.148302 
31   0.126593 
32   0.158956 
33   0.348666 
 
>  <lowdin_charges> 
33 
1   -0.466318 
2   -0.454219 
3   -0.210095 
4   -0.200563 
5   -0.202849 
6   -0.172307 
7   -0.199364 
8   -0.206075 
9   -0.070882 
10   0.031083 
11   0.152526 
12   -0.276011 
13   -0.196771 
14   -0.324247 
15   -0.103558 
16   0.156249 
17   0.151099 
18   0.150865 
19   0.156654 
20   0.150477 
21   0.155269 
22   0.148985 
23   0.149284 
24   0.121804 
25   0.146751 
26   0.173111 
27   0.184827 
28   0.142542 
29   0.170863 
30   0.150474 
31   0.12846 
32   0.173293 
33   0.28864 
 
$$$$ 
 
