PCCDB-ID:  38083 
public computational chemistry database (PCCDB) project, http://pccdb.org 
 
 28 29  0  0  0  0  0  0  0  0999 V2000 
    0.9530   -0.4749    0.0019 C   0  0  0  0  0  0  0  0  0  0  0  0 
    2.4500   -0.1505    0.0134 C   0  0  0  0  0  0  0  0  0  0  0  0 
    4.1502   -3.1702    3.9534 C   0  0  0  0  0  0  0  0  0  0  0  0 
    3.6833   -3.5739    2.6871 C   0  0  0  0  0  0  0  0  0  0  0  0 
    4.2253   -1.8264    4.3016 C   0  0  0  0  0  0  0  0  0  0  0  0 
    3.2764   -2.6421    1.7379 C   0  0  0  0  0  0  0  0  0  0  0  0 
    3.2732    0.9492    2.1192 C   0  0  0  0  0  0  0  0  0  0  0  0 
    4.0228    2.9905    4.2672 C   0  0  0  0  0  0  0  0  0  0  0  0 
    3.8200   -0.8663    3.3616 C   0  0  0  0  0  0  0  0  0  0  0  0 
    3.7631    0.5806    3.3625 C   0  0  0  0  0  0  0  0  0  0  0  0 
    3.3515   -1.2916    2.0938 C   0  0  0  0  0  0  0  0  0  0  0  0 
    4.1492    1.4694    4.4443 C   0  0  0  0  0  0  0  0  0  0  0  0 
    3.0275   -0.1541    1.3534 N   0  0  0  0  0  0  0  0  0  0  0  0 
    4.4843    3.6558    5.4094 O   0  0  0  0  0  0  0  0  0  0  0  0 
    4.5787    1.0578    5.5236 O   0  0  0  0  0  0  0  0  0  0  0  0 
    0.5762   -0.4745   -1.0267 H   0  0  0  0  0  0  0  0  0  0  0  0 
    0.3899    0.2684    0.5756 H   0  0  0  0  0  0  0  0  0  0  0  0 
    0.7590   -1.4584    0.4402 H   0  0  0  0  0  0  0  0  0  0  0  0 
    2.6314    0.8381   -0.4199 H   0  0  0  0  0  0  0  0  0  0  0  0 
    3.0073   -0.8705   -0.5963 H   0  0  0  0  0  0  0  0  0  0  0  0 
    4.4580   -3.9262    4.6703 H   0  0  0  0  0  0  0  0  0  0  0  0 
    3.6392   -4.6321    2.4448 H   0  0  0  0  0  0  0  0  0  0  0  0 
    4.5852   -1.5087    5.2733 H   0  0  0  0  0  0  0  0  0  0  0  0 
    2.9196   -2.9598    0.7625 H   0  0  0  0  0  0  0  0  0  0  0  0 
    3.0822    1.9358    1.7179 H   0  0  0  0  0  0  0  0  0  0  0  0 
    2.9660    3.2356    4.0668 H   0  0  0  0  0  0  0  0  0  0  0  0 
    4.5972    3.2979    3.3782 H   0  0  0  0  0  0  0  0  0  0  0  0 
    4.7299    2.9328    6.0240 H   0  0  0  0  0  0  0  0  0  0  0  0 
  1  2  1  0  0  0  0 
  1 18  1  0  0  0  0 
  1 17  1  0  0  0  0 
  2 13  1  0  0  0  0 
  3  5  1  0  0  0  0 
  3 21  1  0  0  0  0 
  4  3  2  0  0  0  0 
  5 23  1  0  0  0  0 
  6 11  2  0  0  0  0 
  6  4  1  0  0  0  0 
  7 10  2  0  0  0  0 
  8 12  1  0  0  0  0 
  8 14  1  0  0  0  0 
  9 10  1  0  0  0  0 
  9  5  2  0  0  0  0 
 10 12  1  0  0  0  0 
 11  9  1  0  0  0  0 
 12 15  2  0  0  0  0 
 13 11  1  0  0  0  0 
 13  7  1  0  0  0  0 
 14 28  1  0  0  0  0 
 16  1  1  0  0  0  0 
 19  2  1  0  0  0  0 
 20  2  1  0  0  0  0 
 22  4  1  0  0  0  0 
 24  6  1  0  0  0  0 
 25  7  1  0  0  0  0 
 26  8  1  0  0  0  0 
 27  8  1  0  0  0  0 
M  END 
>  <HBA> 
3 
 
>  <HBD> 
1 
 
>  <TPSA> 
42.23 
 
>  <cid> 
38083 
 
>  <dipole> 
6.56 
 
>  <excitation_energy_1> 
4.165 
 
>  <excitation_energy_2> 
4.284 
 
>  <excitation_energy_3> 
4.4 
 
>  <excitation_energy_4> 
4.979 
 
>  <homo_energy> 
-5.908 
 
>  <homo_lumo_gap> 
4.667 
 
>  <logP> 
1.836 
 
>  <lumo_energy> 
-1.241 
 
>  <melting_point> 
104.67 
 
>  <molecular_refractivity> 
59.36 
 
>  <oscillator_strength_1> 
0.1896 
 
>  <oscillator_strength_2> 
0.001 
 
>  <oscillator_strength_3> 
0.0299 
 
>  <oscillator_strength_4> 
0.0072 
 
>  <open_babel_can_smiles> 
OCC(=O)c1cn(c2c1cccc2)CC 
 
>  <mulliken_charges> 
28 
1   -0.445577 
2   -0.159191 
3   -0.140086 
4   -0.146879 
5   -0.197729 
6   -0.167738 
7   0.003837 
8   -0.065649 
9   0.07622 
10   0.007089 
11   0.30083 
12   0.340379 
13   -0.502594 
14   -0.634258 
15   -0.508046 
16   0.158055 
17   0.16348 
18   0.171746 
19   0.164263 
20   0.17012 
21   0.129993 
22   0.128961 
23   0.165185 
24   0.129326 
25   0.16757 
26   0.140572 
27   0.141004 
28   0.409118 
 
>  <lowdin_charges> 
28 
1   -0.450904 
2   -0.190484 
3   -0.167558 
4   -0.156187 
5   -0.14833 
6   -0.187918 
7   -0.102422 
8   -0.163013 
9   -0.013819 
10   -0.10242 
11   0.023779 
12   0.142958 
13   -0.004489 
14   -0.468759 
15   -0.273474 
16   0.159652 
17   0.160786 
18   0.162496 
19   0.159555 
20   0.160874 
21   0.160291 
22   0.157059 
23   0.17704 
24   0.158089 
25   0.171829 
26   0.142226 
27   0.144938 
28   0.348204 
 
$$$$ 
 
