PCCDB-ID:  13863 
public computational chemistry database (PCCDB) project, http://pccdb.org 
 
 16 16  0  0  0  0  0  0  0  0999 V2000 
   -0.7602    1.2154   -0.0035 C   0  0  0  0  0  0  0  0  0  0  0  0 
   -1.4142    0.0274    0.0043 C   0  0  0  0  0  0  0  0  0  0  0  0 
    0.6932    1.2536   -0.0381 C   0  0  0  0  0  0  0  0  0  0  0  0 
    0.6886   -1.2403   -0.0584 C   0  0  0  0  0  0  0  0  0  0  0  0 
   -2.7908   -0.1400    0.1266 N   0  0  0  0  0  0  0  0  0  0  0  0 
    1.4751    2.2749   -0.0400 N   0  0  0  0  0  0  0  0  0  0  0  0 
    1.3902   -2.3113   -0.0179 N   0  0  0  0  0  0  0  0  0  0  0  0 
   -0.7182   -1.1726   -0.0772 N   0  0  0  0  0  0  0  0  0  0  0  0 
    1.2999   -0.0079   -0.1035 N   0  0  0  0  0  0  0  0  0  0  0  0 
   -1.3104    2.1486   -0.0121 H   0  0  0  0  0  0  0  0  0  0  0  0 
   -3.3040    0.7334    0.1059 H   0  0  0  0  0  0  0  0  0  0  0  0 
   -3.1876   -0.8066   -0.5295 H   0  0  0  0  0  0  0  0  0  0  0  0 
    0.9231    3.1329    0.0081 H   0  0  0  0  0  0  0  0  0  0  0  0 
    0.8023   -3.1450   -0.0276 H   0  0  0  0  0  0  0  0  0  0  0  0 
   -1.1951   -1.9950    0.2683 H   0  0  0  0  0  0  0  0  0  0  0  0 
    2.3120   -0.0194   -0.1105 H   0  0  0  0  0  0  0  0  0  0  0  0 
  1  2  2  0  0  0  0 
  2  5  1  0  0  0  0 
  3  1  1  0  0  0  0 
  4  7  2  0  0  0  0 
  6  3  2  0  0  0  0 
  6 13  1  0  0  0  0 
  8  4  1  0  0  0  0 
  8  2  1  0  0  0  0 
  8 15  1  0  0  0  0 
  9  4  1  0  0  0  0 
  9  3  1  0  0  0  0 
 10  1  1  0  0  0  0 
 11  5  1  0  0  0  0 
 12  5  1  0  0  0  0 
 14  7  1  0  0  0  0 
 16  9  1  0  0  0  0 
M  END 
>  <HBA> 
5 
 
>  <HBD> 
3 
 
>  <TPSA> 
103.84 
 
>  <cid> 
13863 
 
>  <dipole> 
6.59 
 
>  <excitation_energy_1> 
4.553 
 
>  <excitation_energy_2> 
4.954 
 
>  <excitation_energy_3> 
5.016 
 
>  <excitation_energy_4> 
5.194 
 
>  <homo_energy> 
-5.717 
 
>  <homo_lumo_gap> 
5.57 
 
>  <logP> 
0.967 
 
>  <lumo_energy> 
-0.147 
 
>  <melting_point> 
183.8 
 
>  <molecular_refractivity> 
35.25 
 
>  <oscillator_strength_1> 
0.005 
 
>  <oscillator_strength_2> 
0.0567 
 
>  <oscillator_strength_3> 
0.0107 
 
>  <oscillator_strength_4> 
0.1142 
 
>  <open_babel_can_smiles> 
Nc1cc(=N)[nH]c(=N)[nH]1 
 
>  <mulliken_charges> 
16 
1   -0.270102 
2   0.531603 
3   0.518786 
4   0.67921 
5   -0.783955 
6   -0.668947 
7   -0.652408 
8   -0.715351 
9   -0.667296 
10   0.125307 
11   0.339528 
12   0.331018 
13   0.276072 
14   0.269948 
15   0.335176 
16   0.351409 
 
>  <lowdin_charges> 
16 
1   -0.308003 
2   0.119581 
3   0.104559 
4   0.1412 
5   -0.483945 
6   -0.451533 
7   -0.468534 
8   -0.265508 
9   -0.226295 
10   0.165894 
11   0.287652 
12   0.283503 
13   0.250892 
14   0.251293 
15   0.293322 
16   0.305922 
 
$$$$ 
 
