PCCDB-ID:  20908 
public computational chemistry database (PCCDB) project, http://pccdb.org 
 
 22 23  0  0  0  0  0  0  0  0999 V2000 
    2.4146    0.7795   -0.1038 C   0  0  0  0  0  0  0  0  0  0  0  0 
    2.4339   -0.6348   -0.0791 C   0  0  0  0  0  0  0  0  0  0  0  0 
   -2.4445    0.7309    0.0818 C   0  0  0  0  0  0  0  0  0  0  0  0 
    1.2136    1.4507   -0.0764 C   0  0  0  0  0  0  0  0  0  0  0  0 
   -1.2626    1.4283    0.0148 C   0  0  0  0  0  0  0  0  0  0  0  0 
   -2.4285   -0.6836    0.1285 C   0  0  0  0  0  0  0  0  0  0  0  0 
    1.2589   -1.3525   -0.0239 C   0  0  0  0  0  0  0  0  0  0  0  0 
   -1.2879   -2.9080    0.1960 C   0  0  0  0  0  0  0  0  0  0  0  0 
   -0.0170    0.7436   -0.0151 C   0  0  0  0  0  0  0  0  0  0  0  0 
   -1.2463   -1.3972    0.1050 C   0  0  0  0  0  0  0  0  0  0  0  0 
    0.0000   -0.6907    0.0196 C   0  0  0  0  0  0  0  0  0  0  0  0 
   -0.6992   -3.5784   -0.9200 O   0  0  0  0  0  0  0  0  0  0  0  0 
    3.3492    1.3322   -0.1495 H   0  0  0  0  0  0  0  0  0  0  0  0 
    3.3851   -1.1594   -0.1127 H   0  0  0  0  0  0  0  0  0  0  0  0 
   -3.3943    1.2582    0.1022 H   0  0  0  0  0  0  0  0  0  0  0  0 
    1.1882    2.5378   -0.1011 H   0  0  0  0  0  0  0  0  0  0  0  0 
   -1.2622    2.5154   -0.0161 H   0  0  0  0  0  0  0  0  0  0  0  0 
   -3.3716   -1.2220    0.1946 H   0  0  0  0  0  0  0  0  0  0  0  0 
    1.2830   -2.4359   -0.0457 H   0  0  0  0  0  0  0  0  0  0  0  0 
   -2.3309   -3.2300    0.3383 H   0  0  0  0  0  0  0  0  0  0  0  0 
   -0.7202   -3.2596    1.0650 H   0  0  0  0  0  0  0  0  0  0  0  0 
   -1.0814   -3.1887   -1.7224 H   0  0  0  0  0  0  0  0  0  0  0  0 
  1  2  2  0  0  0  0 
  1  4  1  0  0  0  0 
  2  7  1  0  0  0  0 
  3 15  1  0  0  0  0 
  3  6  1  0  0  0  0 
  4  9  2  0  0  0  0 
  5  3  2  0  0  0  0 
  6 18  1  0  0  0  0 
  7 11  2  0  0  0  0 
  8 20  1  0  0  0  0 
  8 21  1  0  0  0  0 
  9  5  1  0  0  0  0 
  9 11  1  0  0  0  0 
 10  6  2  0  0  0  0 
 10  8  1  0  0  0  0 
 11 10  1  0  0  0  0 
 12  8  1  0  0  0  0 
 13  1  1  0  0  0  0 
 14  2  1  0  0  0  0 
 16  4  1  0  0  0  0 
 17  5  1  0  0  0  0 
 19  7  1  0  0  0  0 
 22 12  1  0  0  0  0 
M  END 
>  <HBA> 
1 
 
>  <HBD> 
1 
 
>  <TPSA> 
20.23 
 
>  <cid> 
20908 
 
>  <dipole> 
1.49 
 
>  <excitation_energy_1> 
4.283 
 
>  <excitation_energy_2> 
4.413 
 
>  <excitation_energy_3> 
5.274 
 
>  <excitation_energy_4> 
5.423 
 
>  <homo_energy> 
-5.84 
 
>  <homo_lumo_gap> 
4.754 
 
>  <logP> 
2.332 
 
>  <lumo_energy> 
-1.086 
 
>  <melting_point> 
71.11 
 
>  <molecular_refractivity> 
50.08 
 
>  <oscillator_strength_1> 
0.0887 
 
>  <oscillator_strength_2> 
0.0001 
 
>  <oscillator_strength_3> 
0.0176 
 
>  <oscillator_strength_4> 
0.0803 
 
>  <open_babel_can_smiles> 
OCc1cccc2c1cccc2 
 
>  <mulliken_charges> 
22 
1   -0.130724 
2   -0.136588 
3   -0.129926 
4   -0.196225 
5   -0.189389 
6   -0.204038 
7   -0.194565 
8   -0.111473 
9   0.1387 
10   0.074753 
11   0.071191 
12   -0.608335 
13   0.129867 
14   0.130916 
15   0.130644 
16   0.129086 
17   0.130561 
18   0.125515 
19   0.161522 
20   0.131568 
21   0.157197 
22   0.389743 
 
>  <lowdin_charges> 
22 
1   -0.15786 
2   -0.156744 
3   -0.161965 
4   -0.15531 
5   -0.150263 
6   -0.168828 
7   -0.156521 
8   -0.133253 
9   -0.000291 
10   -0.034052 
11   -0.004842 
12   -0.467209 
13   0.158744 
14   0.158954 
15   0.159192 
16   0.154931 
17   0.155974 
18   0.155622 
19   0.171352 
20   0.133904 
21   0.154338 
22   0.344127 
 
$$$$ 
 
