PCCDB-ID:  7673 
public computational chemistry database (PCCDB) project, http://pccdb.org 
 
 14 14  0  0  0  0  0  0  0  0999 V2000 
   -1.5548    0.0609    0.3948 C   0  0  0  0  0  0  0  0  0  0  0  0 
   -0.7740    1.1675    0.0519 C   0  0  0  0  0  0  0  0  0  0  0  0 
   -0.9843   -1.2144    0.4064 C   0  0  0  0  0  0  0  0  0  0  0  0 
    0.5695    1.0099   -0.2789 C   0  0  0  0  0  0  0  0  0  0  0  0 
    0.3571   -1.3904    0.0787 C   0  0  0  0  0  0  0  0  0  0  0  0 
    3.5993   -0.5928   -0.8893 C   0  0  0  0  0  0  0  0  0  0  0  0 
    1.1369   -0.2749   -0.2677 C   0  0  0  0  0  0  0  0  0  0  0  0 
    2.4602   -0.4441   -0.5934 N   0  0  0  0  0  0  0  0  0  0  0  0 
    5.1315   -0.7921   -1.2847 S   0  0  0  0  0  0  0  0  0  0  0  0 
   -2.6018    0.1910    0.6523 H   0  0  0  0  0  0  0  0  0  0  0  0 
   -1.2116    2.1617    0.0411 H   0  0  0  0  0  0  0  0  0  0  0  0 
   -1.5856   -2.0790    0.6725 H   0  0  0  0  0  0  0  0  0  0  0  0 
    1.1863    1.8614   -0.5470 H   0  0  0  0  0  0  0  0  0  0  0  0 
    0.8122   -2.3755    0.0846 H   0  0  0  0  0  0  0  0  0  0  0  0 
  1  3  1  0  0  0  0 
  1 10  1  0  0  0  0 
  2  1  2  0  0  0  0 
  3 12  1  0  0  0  0 
  4  7  2  0  0  0  0 
  4  2  1  0  0  0  0 
  5 14  1  0  0  0  0 
  5  3  2  0  0  0  0 
  6  8  2  0  0  0  0 
  7  5  1  0  0  0  0 
  8  7  1  0  0  0  0 
  9  6  2  0  0  0  0 
 11  2  1  0  0  0  0 
 13  4  1  0  0  0  0 
M  END 
>  <HBA> 
2 
 
>  <HBD> 
0 
 
>  <TPSA> 
44.45 
 
>  <cid> 
7673 
 
>  <dipole> 
3.97 
 
>  <excitation_energy_1> 
4.38 
 
>  <excitation_energy_2> 
4.54 
 
>  <excitation_energy_3> 
4.768 
 
>  <excitation_energy_4> 
5.071 
 
>  <homo_energy> 
-6.28 
 
>  <homo_lumo_gap> 
4.996 
 
>  <logP> 
2.421 
 
>  <lumo_energy> 
-1.284 
 
>  <melting_point> 
60.1 
 
>  <molecular_refractivity> 
41.13 
 
>  <oscillator_strength_1> 
0.0 
 
>  <oscillator_strength_2> 
0.4099 
 
>  <oscillator_strength_3> 
0.0037 
 
>  <oscillator_strength_4> 
0.0 
 
>  <open_babel_can_smiles> 
S=C=Nc1ccccc1 
 
>  <mulliken_charges> 
14 
1   -0.119177 
2   -0.141796 
3   -0.141572 
4   -0.124701 
5   -0.124768 
6   0.138344 
7   0.273027 
8   -0.378025 
9   -0.119987 
10   0.140912 
11   0.144464 
12   0.144477 
13   0.154431 
14   0.154371 
 
>  <lowdin_charges> 
14 
1   -0.150825 
2   -0.145304 
3   -0.14684 
4   -0.158366 
5   -0.157046 
6   -0.043469 
7   0.059405 
8   -0.053674 
9   -0.043388 
10   0.16267 
11   0.16512 
12   0.166442 
13   0.173287 
14   0.171989 
 
$$$$ 
 
