PCCDB-ID:  44486 
public computational chemistry database (PCCDB) project, http://pccdb.org 
 
 20 20  0  0  0  0  0  0  0  0999 V2000 
    3.1143    1.7032   -0.7721 C   0  0  0  0  0  0  0  0  0  0  0  0 
    9.2157    0.8386    1.6274 C   0  0  0  0  0  0  0  0  0  0  0  0 
    8.8423    1.3364    0.3776 C   0  0  0  0  0  0  0  0  0  0  0  0 
    8.2370    0.5173    2.5710 C   0  0  0  0  0  0  0  0  0  0  0  0 
    7.4952    1.4961    0.0579 C   0  0  0  0  0  0  0  0  0  0  0  0 
    6.8913    0.6951    2.2641 C   0  0  0  0  0  0  0  0  0  0  0  0 
    6.5072    1.1689    0.9993 C   0  0  0  0  0  0  0  0  0  0  0  0 
    5.0442    1.3882    0.7996 C   0  0  0  0  0  0  0  0  0  0  0  0 
    5.1895    0.6066   -1.4646 N   0  0  0  0  0  0  0  0  0  0  0  0 
    4.4940    1.2956   -0.5096 N   0  0  0  0  0  0  0  0  0  0  0  0 
    4.2990    1.6566    1.7264 O   0  0  0  0  0  0  0  0  0  0  0  0 
    4.5742    0.4651   -2.5058 O   0  0  0  0  0  0  0  0  0  0  0  0 
    2.7506    2.2205    0.1122 H   0  0  0  0  0  0  0  0  0  0  0  0 
    2.4974    0.8235   -0.9780 H   0  0  0  0  0  0  0  0  0  0  0  0 
    3.0931    2.3526   -1.6503 H   0  0  0  0  0  0  0  0  0  0  0  0 
   10.2674    0.7073    1.8670 H   0  0  0  0  0  0  0  0  0  0  0  0 
    9.6014    1.5995   -0.3535 H   0  0  0  0  0  0  0  0  0  0  0  0 
    8.5225    0.1356    3.5471 H   0  0  0  0  0  0  0  0  0  0  0  0 
    7.2185    1.8846   -0.9142 H   0  0  0  0  0  0  0  0  0  0  0  0 
    6.1200    0.4716    2.9936 H   0  0  0  0  0  0  0  0  0  0  0  0 
  1 10  1  0  0  0  0 
  1 13  1  0  0  0  0 
  2 16  1  0  0  0  0 
  2  4  2  0  0  0  0 
  3  2  1  0  0  0  0 
  4 18  1  0  0  0  0 
  5  3  2  0  0  0  0 
  5  7  1  0  0  0  0 
  6  4  1  0  0  0  0 
  6 20  1  0  0  0  0 
  7  6  2  0  0  0  0 
  8  7  1  0  0  0  0 
  8 11  2  0  0  0  0 
  9 10  1  0  0  0  0 
 10  8  1  0  0  0  0 
 12  9  1  0  0  0  0 
 14  1  1  0  0  0  0 
 15  1  1  0  0  0  0 
 17  3  1  0  0  0  0 
 19  5  1  0  0  0  0 
M  RAD  2   9   2  12   2 
M  END 
>  <HBA> 
4 
 
>  <HBD> 
0 
 
>  <TPSA> 
49.74 
 
>  <cid> 
44486 
 
>  <dipole> 
1.58 
 
>  <excitation_energy_1> 
2.94 
 
>  <excitation_energy_2> 
4.171 
 
>  <excitation_energy_3> 
4.294 
 
>  <excitation_energy_4> 
4.485 
 
>  <homo_energy> 
-6.689 
 
>  <homo_lumo_gap> 
4.593 
 
>  <logP> 
1.44 
 
>  <lumo_energy> 
-2.095 
 
>  <melting_point> 
59.9 
 
>  <molecular_refractivity> 
44.27 
 
>  <oscillator_strength_1> 
0.0014 
 
>  <oscillator_strength_2> 
0.017 
 
>  <oscillator_strength_3> 
0.0199 
 
>  <oscillator_strength_4> 
0.0273 
 
>  <open_babel_can_smiles> 
[O][N]N(C(=O)c1ccccc1)C 
 
>  <mulliken_charges> 
20 
1   -0.326941 
2   -0.115604 
3   -0.141787 
4   -0.137483 
5   -0.13345 
6   -0.147583 
7   0.079522 
8   0.542122 
9   0.169356 
10   -0.310904 
11   -0.467346 
12   -0.329774 
13   0.206846 
14   0.187845 
15   0.185905 
16   0.141156 
17   0.141731 
18   0.141613 
19   0.152133 
20   0.16264 
 
>  <lowdin_charges> 
20 
1   -0.370465 
2   -0.134417 
3   -0.157537 
4   -0.154117 
5   -0.13464 
6   -0.129379 
7   -0.042203 
8   0.18317 
9   0.075406 
10   -0.041465 
11   -0.251946 
12   -0.21342 
13   0.188983 
14   0.173004 
15   0.172916 
16   0.161885 
17   0.165033 
18   0.163367 
19   0.168704 
20   0.177122 
 
$$$$ 
 
