PCCDB-ID:  8150 
public computational chemistry database (PCCDB) project, http://pccdb.org 
 
 23 22  0  0  0  0  0  0  0  0999 V2000 
    1.0755    1.3706   -0.1614 C   0  0  0  0  0  0  0  0  0  0  0  0 
    9.5751    1.1988   -0.4311 C   0  0  0  0  0  0  0  0  0  0  0  0 
    3.2882    2.0217   -0.7441 C   0  0  0  0  0  0  0  0  0  0  0  0 
    7.3571    0.5230    0.0991 C   0  0  0  0  0  0  0  0  0  0  0  0 
    4.1673    0.8450   -0.3003 C   0  0  0  0  0  0  0  0  0  0  0  0 
    6.4544    1.4149   -0.7631 C   0  0  0  0  0  0  0  0  0  0  0  0 
    2.1730    2.2216    0.1082 O   0  0  0  0  0  0  0  0  0  0  0  0 
    8.5328    1.1915    0.5253 O   0  0  0  0  0  0  0  0  0  0  0  0 
    5.2884    0.7051   -1.1657 O   0  0  0  0  0  0  0  0  0  0  0  0 
    0.2659    1.6782    0.5059 H   0  0  0  0  0  0  0  0  0  0  0  0 
    1.2995    0.3102    0.0287 H   0  0  0  0  0  0  0  0  0  0  0  0 
    0.7347    1.4707   -1.2043 H   0  0  0  0  0  0  0  0  0  0  0  0 
   10.4323    1.6875    0.0398 H   0  0  0  0  0  0  0  0  0  0  0  0 
    9.3146    1.7559   -1.3436 H   0  0  0  0  0  0  0  0  0  0  0  0 
    9.8633    0.1758   -0.7209 H   0  0  0  0  0  0  0  0  0  0  0  0 
    2.9721    1.8683   -1.7878 H   0  0  0  0  0  0  0  0  0  0  0  0 
    3.8725    2.9481   -0.7060 H   0  0  0  0  0  0  0  0  0  0  0  0 
    7.5978   -0.3972   -0.4559 H   0  0  0  0  0  0  0  0  0  0  0  0 
    6.8219    0.2319    1.0100 H   0  0  0  0  0  0  0  0  0  0  0  0 
    3.6107   -0.0969   -0.3558 H   0  0  0  0  0  0  0  0  0  0  0  0 
    4.4722    0.9899    0.7456 H   0  0  0  0  0  0  0  0  0  0  0  0 
    6.9716    1.7148   -1.6811 H   0  0  0  0  0  0  0  0  0  0  0  0 
    6.2050    2.3304   -0.2085 H   0  0  0  0  0  0  0  0  0  0  0  0 
  1 11  1  0  0  0  0 
  1  7  1  0  0  0  0 
  1 10  1  0  0  0  0 
  2 13  1  0  0  0  0 
  2  8  1  0  0  0  0 
  3 17  1  0  0  0  0 
  3  5  1  0  0  0  0 
  3  7  1  0  0  0  0 
  4  8  1  0  0  0  0 
  4 19  1  0  0  0  0 
  5 21  1  0  0  0  0 
  6 23  1  0  0  0  0 
  6  4  1  0  0  0  0 
  9  6  1  0  0  0  0 
  9  5  1  0  0  0  0 
 12  1  1  0  0  0  0 
 14  2  1  0  0  0  0 
 15  2  1  0  0  0  0 
 16  3  1  0  0  0  0 
 18  4  1  0  0  0  0 
 20  5  1  0  0  0  0 
 22  6  1  0  0  0  0 
M  END 
>  <HBA> 
3 
 
>  <HBD> 
0 
 
>  <TPSA> 
27.69 
 
>  <cid> 
8150 
 
>  <dipole> 
1.2 
 
>  <excitation_energy_1> 
6.127 
 
>  <excitation_energy_2> 
6.329 
 
>  <excitation_energy_3> 
6.412 
 
>  <excitation_energy_4> 
6.441 
 
>  <homo_energy> 
-6.359 
 
>  <homo_lumo_gap> 
8.512 
 
>  <logP> 
0.296 
 
>  <lumo_energy> 
2.152 
 
>  <melting_point> 
-53.41 
 
>  <molecular_refractivity> 
34.21 
 
>  <oscillator_strength_1> 
0.0056 
 
>  <oscillator_strength_2> 
0.0011 
 
>  <oscillator_strength_3> 
0.0056 
 
>  <oscillator_strength_4> 
0.0078 
 
>  <open_babel_can_smiles> 
COCCOCCOC 
 
>  <mulliken_charges> 
23 
1   -0.199716 
2   -0.199732 
3   -0.03747 
4   -0.037425 
5   -0.052621 
6   -0.052296 
7   -0.458839 
8   -0.45907 
9   -0.47593 
10   0.160463 
11   0.132959 
12   0.13332 
13   0.16042 
14   0.132765 
15   0.133586 
16   0.130132 
17   0.14617 
18   0.130403 
19   0.145809 
20   0.145118 
21   0.138364 
22   0.145113 
23   0.138478 
 
>  <lowdin_charges> 
23 
1   -0.278092 
2   -0.28087 
3   -0.147895 
4   -0.149494 
5   -0.147851 
6   -0.149585 
7   -0.271195 
8   -0.271288 
9   -0.272665 
10   0.157256 
11   0.129651 
12   0.132171 
13   0.157214 
14   0.131564 
15   0.132779 
16   0.13209 
17   0.147813 
18   0.133902 
19   0.14803 
20   0.14609 
21   0.136019 
22   0.146529 
23   0.137828 
 
$$$$ 
 
