PCCDB-ID:  68240 
public computational chemistry database (PCCDB) project, http://pccdb.org 
 
 12 12  0  0  0  0  0  0  0  0999 V2000 
    0.7717    1.3443   -0.0122 C   0  0  0  0  0  0  0  0  0  0  0  0 
    1.5476   -0.0012    0.0040 C   0  0  0  0  0  0  0  0  0  0  0  0 
   -0.7815    1.3452    0.0048 C   0  0  0  0  0  0  0  0  0  0  0  0 
    0.7702   -1.3458   -0.0108 C   0  0  0  0  0  0  0  0  0  0  0  0 
   -1.5590    0.0006   -0.0103 C   0  0  0  0  0  0  0  0  0  0  0  0 
   -0.7830   -1.3449    0.0051 C   0  0  0  0  0  0  0  0  0  0  0  0 
    1.3748    2.3871   -0.0397 O   0  0  0  0  0  0  0  0  0  0  0  0 
    2.7525   -0.0019    0.0311 O   0  0  0  0  0  0  0  0  0  0  0  0 
   -1.3836    2.3889    0.0319 O   0  0  0  0  0  0  0  0  0  0  0  0 
    1.3723   -2.3895   -0.0369 O   0  0  0  0  0  0  0  0  0  0  0  0 
   -2.7637    0.0013   -0.0370 O   0  0  0  0  0  0  0  0  0  0  0  0 
   -1.3861   -2.3877    0.0314 O   0  0  0  0  0  0  0  0  0  0  0  0 
  1  2  1  0  0  0  0 
  1  3  1  0  0  0  0 
  2  8  2  0  0  0  0 
  3  9  2  0  0  0  0 
  4  2  1  0  0  0  0 
  4  6  1  0  0  0  0 
  5  3  1  0  0  0  0 
  5  6  1  0  0  0  0 
  6 12  2  0  0  0  0 
  7  1  2  0  0  0  0 
 10  4  2  0  0  0  0 
 11  5  2  0  0  0  0 
M  END 
>  <HBA> 
6 
 
>  <HBD> 
0 
 
>  <TPSA> 
102.42 
 
>  <cid> 
68240 
 
>  <dipole> 
0.0 
 
>  <excitation_energy_1> 
0.672 
 
>  <excitation_energy_2> 
2.01 
 
>  <excitation_energy_3> 
2.011 
 
>  <excitation_energy_4> 
2.616 
 
>  <homo_energy> 
-7.426 
 
>  <homo_lumo_gap> 
1.899 
 
>  <logP> 
-2.585 
 
>  <lumo_energy> 
-5.527 
 
>  <melting_point> 
124.36 
 
>  <molecular_refractivity> 
30.04 
 
>  <oscillator_strength_1> 
0.0 
 
>  <oscillator_strength_2> 
0.0 
 
>  <oscillator_strength_3> 
0.0 
 
>  <oscillator_strength_4> 
0.0 
 
>  <open_babel_can_smiles> 
O=C1C(=O)C(=O)C(=O)C(=O)C1=O 
 
>  <mulliken_charges> 
12 
1   0.340359 
2   0.340331 
3   0.340237 
4   0.340238 
5   0.34028 
6   0.340338 
7   -0.340267 
8   -0.340335 
9   -0.340338 
10   -0.34034 
11   -0.340276 
12   -0.340227 
 
>  <lowdin_charges> 
12 
1   0.094408 
2   0.088225 
3   0.094441 
4   0.09444 
5   0.088185 
6   0.094391 
7   -0.092945 
8   -0.091105 
9   -0.093037 
10   -0.093042 
11   -0.091042 
12   -0.092919 
 
$$$$ 
 
