PCCDB-ID:  27955 
public computational chemistry database (PCCDB) project, http://pccdb.org 
 
 28 28  0  0  1  0  0  0  0  0999 V2000 
    2.6440    0.2272   -2.0160 C   0  0  0  0  0  0  0  0  0  0  0  0 
    3.7974    3.8143   -2.1464 C   0  0  0  0  0  0  0  0  0  0  0  0 
    6.0095   -0.7243   -0.4960 C   0  0  0  0  0  0  0  0  0  0  0  0 
    6.2257    0.3052    0.4189 C   0  0  0  0  0  0  0  0  0  0  0  0 
    4.8491   -0.7224   -1.2682 C   0  0  0  0  0  0  0  0  0  0  0  0 
    5.2783    1.3198    0.5412 C   0  0  0  0  0  0  0  0  0  0  0  0 
    3.1380    2.4888   -0.0508 C   0  0  0  0  0  0  0  0  0  0  0  0 
    3.8893    0.2937   -1.1578 C   0  0  0  0  0  0  0  0  0  0  0  0 
    3.6266    3.8372   -0.6285 C   0  0  2  0  0  0  0  0  0  0  0  0 
    4.1120    1.3404   -0.2371 C   0  0  0  0  0  0  0  0  0  0  0  0 
    3.1150    6.1741   -0.5268 N   0  0  0  0  0  0  0  0  0  0  0  0 
    2.6304    4.8553   -0.2563 N   0  0  0  0  0  0  0  0  0  0  0  0 
    2.6611   -0.6636   -2.6515 H   0  0  0  0  0  0  0  0  0  0  0  0 
    2.5479    1.0997   -2.6718 H   0  0  0  0  0  0  0  0  0  0  0  0 
    1.7307    0.1805   -1.4095 H   0  0  0  0  0  0  0  0  0  0  0  0 
    4.5517    3.0779   -2.4426 H   0  0  0  0  0  0  0  0  0  0  0  0 
    4.1094    4.8006   -2.4987 H   0  0  0  0  0  0  0  0  0  0  0  0 
    2.8457    3.5653   -2.6304 H   0  0  0  0  0  0  0  0  0  0  0  0 
    6.7347   -1.5265   -0.6048 H   0  0  0  0  0  0  0  0  0  0  0  0 
    7.1204    0.3168    1.0358 H   0  0  0  0  0  0  0  0  0  0  0  0 
    4.6767   -1.5300   -1.9761 H   0  0  0  0  0  0  0  0  0  0  0  0 
    5.4421    2.1186    1.2621 H   0  0  0  0  0  0  0  0  0  0  0  0 
    2.1618    2.2643   -0.4913 H   0  0  0  0  0  0  0  0  0  0  0  0 
    2.9657    2.6247    1.0280 H   0  0  0  0  0  0  0  0  0  0  0  0 
    4.6103    4.0643   -0.1743 H   0  0  0  0  0  0  0  0  0  0  0  0 
    3.6531    6.5466    0.2602 H   0  0  0  0  0  0  0  0  0  0  0  0 
    2.3065    6.7763   -0.6592 H   0  0  0  0  0  0  0  0  0  0  0  0 
    2.4151    4.7469    0.7379 H   0  0  0  0  0  0  0  0  0  0  0  0 
  1 15  1  0  0  0  0 
  1  8  1  0  0  0  0 
  2  9  1  0  0  0  0 
  3  4  2  0  0  0  0 
  4  6  1  0  0  0  0 
  4 20  1  0  0  0  0 
  5  8  2  0  0  0  0 
  5  3  1  0  0  0  0 
  6 22  1  0  0  0  0 
  7 24  1  0  0  0  0 
  8 10  1  0  0  0  0 
  9 12  1  0  0  0  0 
  9 25  1  1  0  0  0 
  9  7  1  0  0  0  0 
 10  7  1  0  0  0  0 
 10  6  2  0  0  0  0 
 11 12  1  0  0  0  0 
 11 26  1  0  0  0  0 
 12 28  1  0  0  0  0 
 13  1  1  0  0  0  0 
 14  1  1  0  0  0  0 
 16  2  1  0  0  0  0 
 17  2  1  0  0  0  0 
 18  2  1  0  0  0  0 
 19  3  1  0  0  0  0 
 21  5  1  0  0  0  0 
 23  7  1  0  0  0  0 
 27 11  1  0  0  0  0 
M  END 
>  <HBA> 
2 
 
>  <HBD> 
2 
 
>  <TPSA> 
38.05 
 
>  <cid> 
27955 
 
>  <dipole> 
1.87 
 
>  <excitation_energy_1> 
5.178 
 
>  <excitation_energy_2> 
5.338 
 
>  <excitation_energy_3> 
5.654 
 
>  <excitation_energy_4> 
5.732 
 
>  <homo_energy> 
-6.177 
 
>  <homo_lumo_gap> 
6.28 
 
>  <logP> 
2.481 
 
>  <lumo_energy> 
0.103 
 
>  <melting_point> 
92.09 
 
>  <molecular_refractivity> 
51.5 
 
>  <oscillator_strength_1> 
0.007 
 
>  <oscillator_strength_2> 
0.0077 
 
>  <oscillator_strength_3> 
0.0474 
 
>  <oscillator_strength_4> 
0.0111 
 
>  <open_babel_can_smiles> 
NN[C@@H](Cc1ccccc1C)C 
 
>  <mulliken_charges> 
28 
1   -0.541145 
2   -0.441315 
3   -0.126106 
4   -0.130982 
5   -0.18623 
6   -0.180115 
7   -0.372099 
8   0.129447 
9   0.082896 
10   0.120698 
11   -0.586205 
12   -0.464924 
13   0.152353 
14   0.169932 
15   0.160562 
16   0.144889 
17   0.16938 
18   0.140314 
19   0.124848 
20   0.1244 
21   0.119325 
22   0.116865 
23   0.153659 
24   0.130226 
25   0.104472 
26   0.286671 
27   0.314304 
28   0.283881 
 
>  <lowdin_charges> 
28 
1   -0.446998 
2   -0.453169 
3   -0.161435 
4   -0.162064 
5   -0.168209 
6   -0.166127 
7   -0.280169 
8   -0.007208 
9   -0.056923 
10   -0.010322 
11   -0.485089 
12   -0.308693 
13   0.156075 
14   0.162968 
15   0.158637 
16   0.153505 
17   0.164184 
18   0.147025 
19   0.15645 
20   0.155534 
21   0.15325 
22   0.151401 
23   0.156207 
24   0.142124 
25   0.115442 
26   0.239913 
27   0.26052 
28   0.23317 
 
$$$$ 
 
