PCCDB-ID:  35737 
public computational chemistry database (PCCDB) project, http://pccdb.org 
 
 30 30  0  0  0  0  0  0  0  0999 V2000 
    0.4538    1.4724   -2.7202 C   0  0  0  0  0  0  0  0  0  0  0  0 
    1.4002    0.4263   -2.1118 C   0  0  0  0  0  0  0  0  0  0  0  0 
   -0.7088    1.7988   -1.7697 C   0  0  0  0  0  0  0  0  0  0  0  0 
   -0.3903    0.4366    2.9703 C   0  0  0  0  0  0  0  0  0  0  0  0 
    0.6326   -0.8366   -1.6871 C   0  0  0  0  0  0  0  0  0  0  0  0 
   -1.4650    0.5274   -1.3526 C   0  0  0  0  0  0  0  0  0  0  0  0 
   -0.9442   -0.2273    1.7032 C   0  0  0  0  0  0  0  0  0  0  0  0 
   -0.1902    1.9501    2.8109 C   0  0  0  0  0  0  0  0  0  0  0  0 
   -0.5372   -0.5369   -0.7307 C   0  0  0  0  0  0  0  0  0  0  0  0 
   -0.0109   -0.0819    0.5723 N   0  0  0  0  0  0  0  0  0  0  0  0 
    0.8085    2.2788    1.8614 O   0  0  0  0  0  0  0  0  0  0  0  0 
    0.0483    1.0833   -3.6668 H   0  0  0  0  0  0  0  0  0  0  0  0 
    1.0086    2.3852   -2.9705 H   0  0  0  0  0  0  0  0  0  0  0  0 
    1.9125    0.8594   -1.2428 H   0  0  0  0  0  0  0  0  0  0  0  0 
    2.1823    0.1557   -2.8325 H   0  0  0  0  0  0  0  0  0  0  0  0 
   -1.4040    2.4996   -2.2491 H   0  0  0  0  0  0  0  0  0  0  0  0 
   -0.3222    2.3035   -0.8753 H   0  0  0  0  0  0  0  0  0  0  0  0 
    0.5690   -0.0242    3.2461 H   0  0  0  0  0  0  0  0  0  0  0  0 
   -1.0858    0.2447    3.7987 H   0  0  0  0  0  0  0  0  0  0  0  0 
    1.3133   -1.5648   -1.2223 H   0  0  0  0  0  0  0  0  0  0  0  0 
    0.2224   -1.3282   -2.5799 H   0  0  0  0  0  0  0  0  0  0  0  0 
   -1.9450    0.0789   -2.2342 H   0  0  0  0  0  0  0  0  0  0  0  0 
   -2.2770    0.7781   -0.6591 H   0  0  0  0  0  0  0  0  0  0  0  0 
   -1.8843    0.2662    1.4294 H   0  0  0  0  0  0  0  0  0  0  0  0 
   -1.1922   -1.2872    1.8954 H   0  0  0  0  0  0  0  0  0  0  0  0 
    0.1207    2.3877    3.7673 H   0  0  0  0  0  0  0  0  0  0  0  0 
   -1.1613    2.4102    2.5485 H   0  0  0  0  0  0  0  0  0  0  0  0 
   -1.1173   -1.4686   -0.5955 H   0  0  0  0  0  0  0  0  0  0  0  0 
    0.8287   -0.6201    0.7883 H   0  0  0  0  0  0  0  0  0  0  0  0 
    0.6575    1.6632    1.1118 H   0  0  0  0  0  0  0  0  0  0  0  0 
  1  2  1  0  0  0  0 
  1  3  1  0  0  0  0 
  2  5  1  0  0  0  0 
  2 14  1  0  0  0  0 
  3  6  1  0  0  0  0 
  3 17  1  0  0  0  0 
  4 18  1  0  0  0  0 
  4 19  1  0  0  0  0 
  5 20  1  0  0  0  0 
  5  9  1  0  0  0  0 
  6  9  1  0  0  0  0 
  6 23  1  0  0  0  0 
  7 25  1  0  0  0  0 
  7  4  1  0  0  0  0 
  8  4  1  0  0  0  0 
  8 26  1  0  0  0  0 
  9 28  1  0  0  0  0 
  9 10  1  0  0  0  0 
 10 29  1  0  0  0  0 
 10  7  1  0  0  0  0 
 11  8  1  0  0  0  0 
 12  1  1  0  0  0  0 
 13  1  1  0  0  0  0 
 15  2  1  0  0  0  0 
 16  3  1  0  0  0  0 
 21  5  1  0  0  0  0 
 22  6  1  0  0  0  0 
 24  7  1  0  0  0  0 
 27  8  1  0  0  0  0 
 30 11  1  0  0  0  0 
M  END 
>  <HBA> 
2 
 
>  <HBD> 
2 
 
>  <TPSA> 
32.26 
 
>  <cid> 
35737 
 
>  <dipole> 
3.06 
 
>  <excitation_energy_1> 
5.642 
 
>  <excitation_energy_2> 
6.038 
 
>  <excitation_energy_3> 
6.194 
 
>  <excitation_energy_4> 
6.253 
 
>  <homo_energy> 
-6.297 
 
>  <homo_lumo_gap> 
8.109 
 
>  <logP> 
1.682 
 
>  <lumo_energy> 
1.812 
 
>  <melting_point> 
39.82 
 
>  <molecular_refractivity> 
47.23 
 
>  <oscillator_strength_1> 
0.0155 
 
>  <oscillator_strength_2> 
0.0131 
 
>  <oscillator_strength_3> 
0.0048 
 
>  <oscillator_strength_4> 
0.0123 
 
>  <open_babel_can_smiles> 
OCCCNC1CCCCC1 
 
>  <mulliken_charges> 
30 
1   -0.2584 
2   -0.256004 
3   -0.262824 
4   -0.298041 
5   -0.291032 
6   -0.263567 
7   -0.126766 
8   -0.008006 
9   0.06009 
10   -0.598397 
11   -0.663701 
12   0.123629 
13   0.134999 
14   0.144613 
15   0.131364 
16   0.129839 
17   0.15333 
18   0.138176 
19   0.133338 
20   0.125457 
21   0.136611 
22   0.128903 
23   0.133518 
24   0.149038 
25   0.122895 
26   0.132877 
27   0.104757 
28   0.105935 
29   0.305128 
30   0.432243 
 
>  <lowdin_charges> 
30 
1   -0.277231 
2   -0.281572 
3   -0.283367 
4   -0.302166 
5   -0.285977 
6   -0.285748 
7   -0.205471 
8   -0.129169 
9   -0.064716 
10   -0.357541 
11   -0.500199 
12   0.135014 
13   0.146374 
14   0.145928 
15   0.145071 
16   0.145538 
17   0.149921 
18   0.143507 
19   0.150661 
20   0.140408 
21   0.146604 
22   0.142475 
23   0.144347 
24   0.145043 
25   0.124055 
26   0.139975 
27   0.116042 
28   0.12204 
29   0.257107 
30   0.333047 
 
$$$$ 
 
