PCCDB-ID:  36249 
public computational chemistry database (PCCDB) project, http://pccdb.org 
 
 28 29  0  0  0  0  0  0  0  0999 V2000 
    2.6977   -0.7795   -1.0109 C   0  0  0  0  0  0  0  0  0  0  0  0 
    5.3055    3.5224    6.4811 C   0  0  0  0  0  0  0  0  0  0  0  0 
    6.2893    3.7562    5.5181 C   0  0  0  0  0  0  0  0  0  0  0  0 
    4.1145    2.8943    6.1104 C   0  0  0  0  0  0  0  0  0  0  0  0 
    1.5695    3.5873    1.1990 C   0  0  0  0  0  0  0  0  0  0  0  0 
    1.2684    2.5766    0.2913 C   0  0  0  0  0  0  0  0  0  0  0  0 
    6.0845    3.3747    4.1922 C   0  0  0  0  0  0  0  0  0  0  0  0 
    3.8997    2.4995    4.7895 C   0  0  0  0  0  0  0  0  0  0  0  0 
    2.7278    3.5257    1.9773 C   0  0  0  0  0  0  0  0  0  0  0  0 
    3.2901    1.4089    0.9361 C   0  0  0  0  0  0  0  0  0  0  0  0 
    1.7696    0.4122   -0.8411 C   0  0  0  0  0  0  0  0  0  0  0  0 
    2.1322    1.4796    0.1509 C   0  0  0  0  0  0  0  0  0  0  0  0 
    4.8893    2.7491    3.8343 C   0  0  0  0  0  0  0  0  0  0  0  0 
    3.5822    2.4274    1.8440 C   0  0  0  0  0  0  0  0  0  0  0  0 
    0.7458    0.5011   -1.5010 O   0  0  0  0  0  0  0  0  0  0  0  0 
    4.7797    2.3227    2.5217 O   0  0  0  0  0  0  0  0  0  0  0  0 
    3.6985   -0.4588   -1.3240 H   0  0  0  0  0  0  0  0  0  0  0  0 
    2.2775   -1.4438   -1.7678 H   0  0  0  0  0  0  0  0  0  0  0  0 
    2.8112   -1.3288   -0.0687 H   0  0  0  0  0  0  0  0  0  0  0  0 
    5.4657    3.8247    7.5119 H   0  0  0  0  0  0  0  0  0  0  0  0 
    7.2205    4.2425    5.7956 H   0  0  0  0  0  0  0  0  0  0  0  0 
    3.3461    2.7013    6.8541 H   0  0  0  0  0  0  0  0  0  0  0  0 
    0.9048    4.4405    1.3028 H   0  0  0  0  0  0  0  0  0  0  0  0 
    0.3735    2.6119   -0.3201 H   0  0  0  0  0  0  0  0  0  0  0  0 
    6.8360    3.5483    3.4284 H   0  0  0  0  0  0  0  0  0  0  0  0 
    2.9801    2.0005    4.5017 H   0  0  0  0  0  0  0  0  0  0  0  0 
    2.9696    4.3186    2.6773 H   0  0  0  0  0  0  0  0  0  0  0  0 
    3.9845    0.5795    0.8591 H   0  0  0  0  0  0  0  0  0  0  0  0 
  1 11  1  0  0  0  0 
  1 19  1  0  0  0  0 
  2 20  1  0  0  0  0 
  3 21  1  0  0  0  0 
  3  2  2  0  0  0  0 
  4  2  1  0  0  0  0 
  4 22  1  0  0  0  0 
  5 23  1  0  0  0  0 
  5  9  2  0  0  0  0 
  6  5  1  0  0  0  0 
  7  3  1  0  0  0  0 
  8  4  2  0  0  0  0 
  9 27  1  0  0  0  0 
 10 14  2  0  0  0  0 
 11 12  1  0  0  0  0 
 12  6  2  0  0  0  0 
 12 10  1  0  0  0  0 
 13  7  2  0  0  0  0 
 13  8  1  0  0  0  0 
 14  9  1  0  0  0  0 
 14 16  1  0  0  0  0 
 15 11  2  0  0  0  0 
 16 13  1  0  0  0  0 
 17  1  1  0  0  0  0 
 18  1  1  0  0  0  0 
 24  6  1  0  0  0  0 
 25  7  1  0  0  0  0 
 26  8  1  0  0  0  0 
 28 10  1  0  0  0  0 
M  END 
>  <HBA> 
2 
 
>  <HBD> 
0 
 
>  <TPSA> 
26.3 
 
>  <cid> 
36249 
 
>  <dipole> 
3.12 
 
>  <excitation_energy_1> 
3.714 
 
>  <excitation_energy_2> 
3.927 
 
>  <excitation_energy_3> 
4.685 
 
>  <excitation_energy_4> 
4.858 
 
>  <homo_energy> 
-6.128 
 
>  <homo_lumo_gap> 
4.582 
 
>  <logP> 
3.682 
 
>  <lumo_energy> 
-1.546 
 
>  <melting_point> 
76.65 
 
>  <molecular_refractivity> 
63.15 
 
>  <oscillator_strength_1> 
0.0006 
 
>  <oscillator_strength_2> 
0.0223 
 
>  <oscillator_strength_3> 
0.0112 
 
>  <oscillator_strength_4> 
0.0065 
 
>  <open_babel_can_smiles> 
CC(=O)c1cccc(c1)Oc1ccccc1 
 
>  <mulliken_charges> 
28 
1   -0.542272 
2   -0.12756 
3   -0.13738 
4   -0.137971 
5   -0.139198 
6   -0.158204 
7   -0.1713 
8   -0.166723 
9   -0.160882 
10   -0.238542 
11   0.409375 
12   0.070795 
13   0.341694 
14   0.353655 
15   -0.450525 
16   -0.577397 
17   0.173292 
18   0.182017 
19   0.172011 
20   0.132148 
21   0.136454 
22   0.136781 
23   0.142327 
24   0.163678 
25   0.143679 
26   0.148193 
27   0.155448 
28   0.146405 
 
>  <lowdin_charges> 
28 
1   -0.475977 
2   -0.167258 
3   -0.14591 
4   -0.147957 
5   -0.14696 
6   -0.142291 
7   -0.179891 
8   -0.188641 
9   -0.174605 
10   -0.175335 
11   0.162267 
12   -0.043371 
13   0.101455 
14   0.100362 
15   -0.238774 
16   -0.165361 
17   0.170684 
18   0.176481 
19   0.170612 
20   0.158773 
21   0.161284 
22   0.162065 
23   0.164328 
24   0.177801 
25   0.169995 
26   0.169655 
27   0.174027 
28   0.17254 
 
$$$$ 
 
