PCCDB-ID:  15523 
public computational chemistry database (PCCDB) project, http://pccdb.org 
 
 22 22  0  0  0  0  0  0  0  0999 V2000 
    3.8076    0.1734    0.9073 C   0  0  0  0  0  0  0  0  0  0  0  0 
    4.0925   -0.2974   -5.6864 C   0  0  0  0  0  0  0  0  0  0  0  0 
    2.6040   -0.1109   -0.0093 C   0  0  0  0  0  0  0  0  0  0  0  0 
    3.4588   -1.4350   -3.5096 C   0  0  0  0  0  0  0  0  0  0  0  0 
    3.1079   -1.3780   -2.1590 C   0  0  0  0  0  0  0  0  0  0  0  0 
    3.5418    0.9627   -3.5637 C   0  0  0  0  0  0  0  0  0  0  0  0 
    3.6841   -0.2599   -4.2319 C   0  0  0  0  0  0  0  0  0  0  0  0 
    2.9679   -0.1678   -1.4766 C   0  0  0  0  0  0  0  0  0  0  0  0 
    3.1939    1.0094   -2.2129 C   0  0  0  0  0  0  0  0  0  0  0  0 
    3.0478    2.2014   -1.5457 O   0  0  0  0  0  0  0  0  0  0  0  0 
    3.4982    0.1966    1.9589 H   0  0  0  0  0  0  0  0  0  0  0  0 
    4.2594    1.1402    0.6648 H   0  0  0  0  0  0  0  0  0  0  0  0 
    4.5769   -0.5992    0.7962 H   0  0  0  0  0  0  0  0  0  0  0  0 
    3.7737   -1.2289   -6.1655 H   0  0  0  0  0  0  0  0  0  0  0  0 
    5.1832   -0.2298   -5.7973 H   0  0  0  0  0  0  0  0  0  0  0  0 
    3.6586    0.5368   -6.2493 H   0  0  0  0  0  0  0  0  0  0  0  0 
    1.8464    0.6661    0.1491 H   0  0  0  0  0  0  0  0  0  0  0  0 
    2.1450   -1.0651    0.2776 H   0  0  0  0  0  0  0  0  0  0  0  0 
    3.5533   -2.3989   -4.0033 H   0  0  0  0  0  0  0  0  0  0  0  0 
    2.9293   -2.3037   -1.6155 H   0  0  0  0  0  0  0  0  0  0  0  0 
    3.7025    1.8953   -4.1053 H   0  0  0  0  0  0  0  0  0  0  0  0 
    3.2234    2.9271   -2.1644 H   0  0  0  0  0  0  0  0  0  0  0  0 
  1 11  1  0  0  0  0 
  2  7  1  0  0  0  0 
  3 17  1  0  0  0  0 
  3 18  1  0  0  0  0 
  3  1  1  0  0  0  0 
  4  5  2  0  0  0  0 
  5 20  1  0  0  0  0 
  5  8  1  0  0  0  0 
  6  9  1  0  0  0  0 
  7  6  2  0  0  0  0 
  7  4  1  0  0  0  0 
  8  3  1  0  0  0  0 
  9 10  1  0  0  0  0 
  9  8  2  0  0  0  0 
 12  1  1  0  0  0  0 
 13  1  1  0  0  0  0 
 14  2  1  0  0  0  0 
 15  2  1  0  0  0  0 
 16  2  1  0  0  0  0 
 19  4  1  0  0  0  0 
 21  6  1  0  0  0  0 
 22 10  1  0  0  0  0 
M  END 
>  <HBA> 
1 
 
>  <HBD> 
1 
 
>  <TPSA> 
20.23 
 
>  <cid> 
15523 
 
>  <dipole> 
1.47 
 
>  <excitation_energy_1> 
4.93 
 
>  <excitation_energy_2> 
5.04 
 
>  <excitation_energy_3> 
5.597 
 
>  <excitation_energy_4> 
5.678 
 
>  <homo_energy> 
-5.728 
 
>  <homo_lumo_gap> 
5.899 
 
>  <logP> 
2.263 
 
>  <lumo_energy> 
0.171 
 
>  <melting_point> 
52.3 
 
>  <molecular_refractivity> 
43.2 
 
>  <oscillator_strength_1> 
0.0549 
 
>  <oscillator_strength_2> 
0.0005 
 
>  <oscillator_strength_3> 
0.0324 
 
>  <oscillator_strength_4> 
0.0045 
 
>  <open_babel_can_smiles> 
CCc1ccc(cc1O)C 
 
>  <mulliken_charges> 
22 
1   -0.438683 
2   -0.530659 
3   -0.326242 
4   -0.183001 
5   -0.197763 
6   -0.245342 
7   0.175344 
8   0.142286 
9   0.299179 
10   -0.649464 
11   0.138258 
12   0.161591 
13   0.142358 
14   0.156984 
15   0.164096 
16   0.153931 
17   0.154722 
18   0.134701 
19   0.115396 
20   0.1208 
21   0.105063 
22   0.406444 
 
>  <lowdin_charges> 
22 
1   -0.441222 
2   -0.440995 
3   -0.268292 
4   -0.190967 
5   -0.156163 
6   -0.225287 
7   0.008134 
8   -0.033669 
9   0.096395 
10   -0.385828 
11   0.14557 
12   0.155632 
13   0.147444 
14   0.158383 
15   0.158947 
16   0.157077 
17   0.156468 
18   0.145664 
19   0.152806 
20   0.154752 
21   0.147584 
22   0.357567 
 
$$$$ 
 
