PCCDB-ID:  27523 
public computational chemistry database (PCCDB) project, http://pccdb.org 
 
 19 18  0  0  1  0  0  0  0  0999 V2000 
    3.0719   -0.2877   -1.6050 C   0  0  0  0  0  0  0  0  0  0  0  0 
    2.2821   -1.3177    2.1101 C   0  0  0  0  0  0  0  0  0  0  0  0 
    2.3719   -0.9133   -0.3930 C   0  0  0  0  0  0  0  0  0  0  0  0 
    4.5480   -1.3857    0.9479 C   0  0  0  0  0  0  0  0  0  0  0  0 
    4.5567   -2.8717    0.6697 C   0  0  0  0  0  0  0  0  0  0  0  0 
    3.1204   -0.7640    0.9484 C   0  0  2  0  0  0  0  0  0  0  0  0 
    4.7120   -3.7269    1.5154 O   0  0  0  0  0  0  0  0  0  0  0  0 
    2.4270   -0.3276   -2.4898 H   0  0  0  0  0  0  0  0  0  0  0  0 
    4.0040   -0.8049   -1.8600 H   0  0  0  0  0  0  0  0  0  0  0  0 
    3.3170    0.7658   -1.4208 H   0  0  0  0  0  0  0  0  0  0  0  0 
    1.3008   -0.8306    2.1464 H   0  0  0  0  0  0  0  0  0  0  0  0 
    2.7777   -1.1511    3.0732 H   0  0  0  0  0  0  0  0  0  0  0  0 
    2.1175   -2.3969    2.0092 H   0  0  0  0  0  0  0  0  0  0  0  0 
    2.1708   -1.9759   -0.5895 H   0  0  0  0  0  0  0  0  0  0  0  0 
    1.3854   -0.4452   -0.2739 H   0  0  0  0  0  0  0  0  0  0  0  0 
    5.1623   -0.8879    0.1858 H   0  0  0  0  0  0  0  0  0  0  0  0 
    5.0138   -1.2240    1.9259 H   0  0  0  0  0  0  0  0  0  0  0  0 
    4.3959   -3.1623   -0.3939 H   0  0  0  0  0  0  0  0  0  0  0  0 
    3.2672    0.3124    1.1213 H   0  0  0  0  0  0  0  0  0  0  0  0 
  1 10  1  0  0  0  0 
  1  3  1  0  0  0  0 
  2 11  1  0  0  0  0 
  2 12  1  0  0  0  0 
  3 15  1  0  0  0  0 
  3  6  1  0  0  0  0 
  4  6  1  0  0  0  0 
  4 17  1  0  0  0  0 
  5  4  1  0  0  0  0 
  5  7  2  0  0  0  0 
  6 19  1  1  0  0  0 
  6  2  1  0  0  0  0 
  8  1  1  0  0  0  0 
  9  1  1  0  0  0  0 
 13  2  1  0  0  0  0 
 14  3  1  0  0  0  0 
 16  4  1  0  0  0  0 
 18  5  1  0  0  0  0 
M  END 
>  <HBA> 
1 
 
>  <HBD> 
0 
 
>  <TPSA> 
17.07 
 
>  <cid> 
27523 
 
>  <dipole> 
2.8 
 
>  <excitation_energy_1> 
4.119 
 
>  <excitation_energy_2> 
6.361 
 
>  <excitation_energy_3> 
6.69 
 
>  <excitation_energy_4> 
6.853 
 
>  <homo_energy> 
-6.724 
 
>  <homo_lumo_gap> 
6.071 
 
>  <logP> 
1.621 
 
>  <lumo_energy> 
-0.653 
 
>  <melting_point> 
5.16 
 
>  <molecular_refractivity> 
31.16 
 
>  <oscillator_strength_1> 
0.0001 
 
>  <oscillator_strength_2> 
0.0111 
 
>  <oscillator_strength_3> 
0.0199 
 
>  <oscillator_strength_4> 
0.0022 
 
>  <open_babel_can_smiles> 
C[C@H](CC)CC=O 
 
>  <mulliken_charges> 
19 
1   -0.451778 
2   -0.448359 
3   -0.253685 
4   -0.333191 
5   0.252483 
6   -0.085629 
7   -0.387268 
8   0.149619 
9   0.143253 
10   0.14544 
11   0.143514 
12   0.149246 
13   0.157077 
14   0.135842 
15   0.138154 
16   0.149756 
17   0.161043 
18   0.10259 
19   0.131896 
 
>  <lowdin_charges> 
19 
1   -0.44733 
2   -0.444253 
3   -0.276572 
4   -0.316332 
5   0.058819 
6   -0.114959 
7   -0.220903 
8   0.154705 
9   0.145245 
10   0.147211 
11   0.149863 
12   0.153208 
13   0.152695 
14   0.13949 
15   0.145631 
16   0.159886 
17   0.162481 
18   0.111328 
19   0.139788 
 
$$$$ 
 
