PCCDB-ID:  59034 
public computational chemistry database (PCCDB) project, http://pccdb.org 
 
 27 28  0  0  0  0  0  0  0  0999 V2000 
    0.6418    0.4704   -0.4891 C   0  0  0  0  0  0  0  0  0  0  0  0 
    3.9210   -2.4072    1.6042 C   0  0  0  0  0  0  0  0  0  0  0  0 
    8.3524   -3.4310    0.1037 C   0  0  0  0  0  0  0  0  0  0  0  0 
    8.6726   -2.2711    0.8155 C   0  0  0  0  0  0  0  0  0  0  0  0 
    7.1624   -3.4907   -0.6235 C   0  0  0  0  0  0  0  0  0  0  0  0 
    7.8155   -1.1749    0.7925 C   0  0  0  0  0  0  0  0  0  0  0  0 
    6.2885   -2.4048   -0.6250 C   0  0  0  0  0  0  0  0  0  0  0  0 
    3.2576    0.6049   -0.5113 C   0  0  0  0  0  0  0  0  0  0  0  0 
    2.0484    0.0867   -0.1945 C   0  0  0  0  0  0  0  0  0  0  0  0 
    3.5607   -1.2617    0.7206 C   0  0  0  0  0  0  0  0  0  0  0  0 
    6.6038   -1.2279    0.0799 C   0  0  0  0  0  0  0  0  0  0  0  0 
    4.2622   -0.2655    0.0584 C   0  0  0  0  0  0  0  0  0  0  0  0 
    5.7036   -0.0476    0.0148 C   0  0  0  0  0  0  0  0  0  0  0  0 
    2.2263   -1.0506    0.5719 O   0  0  0  0  0  0  0  0  0  0  0  0 
    6.3321    1.4835   -0.1507 S   0  0  0  0  0  0  0  0  0  0  0  0 
    0.6263    1.3866   -1.0851 H   0  0  0  0  0  0  0  0  0  0  0  0 
    0.0744    0.6502    0.4324 H   0  0  0  0  0  0  0  0  0  0  0  0 
    0.1185   -0.3141   -1.0498 H   0  0  0  0  0  0  0  0  0  0  0  0 
    3.8144   -3.3689    1.0862 H   0  0  0  0  0  0  0  0  0  0  0  0 
    3.2550   -2.4253    2.4738 H   0  0  0  0  0  0  0  0  0  0  0  0 
    4.9523   -2.3266    1.9490 H   0  0  0  0  0  0  0  0  0  0  0  0 
    9.0285   -4.2816    0.1148 H   0  0  0  0  0  0  0  0  0  0  0  0 
    9.5964   -2.2198    1.3852 H   0  0  0  0  0  0  0  0  0  0  0  0 
    6.9134   -4.3832   -1.1912 H   0  0  0  0  0  0  0  0  0  0  0  0 
    8.0666   -0.2656    1.3285 H   0  0  0  0  0  0  0  0  0  0  0  0 
    5.3677   -2.4503   -1.1981 H   0  0  0  0  0  0  0  0  0  0  0  0 
    3.4577    1.4926   -1.0926 H   0  0  0  0  0  0  0  0  0  0  0  0 
  1  9  1  0  0  0  0 
  1 17  1  0  0  0  0 
  2 21  1  0  0  0  0 
  2 20  1  0  0  0  0 
  3 22  1  0  0  0  0 
  3  4  2  0  0  0  0 
  4 23  1  0  0  0  0 
  5  3  1  0  0  0  0 
  6  4  1  0  0  0  0 
  6 25  1  0  0  0  0 
  7  5  2  0  0  0  0 
  7 11  1  0  0  0  0 
  8  9  2  0  0  0  0 
  8 12  1  0  0  0  0 
  9 14  1  0  0  0  0 
 10  2  1  0  0  0  0 
 11  6  2  0  0  0  0 
 12 10  2  0  0  0  0 
 13 12  1  0  0  0  0 
 13 11  1  0  0  0  0 
 14 10  1  0  0  0  0 
 15 13  2  0  0  0  0 
 16  1  1  0  0  0  0 
 18  1  1  0  0  0  0 
 19  2  1  0  0  0  0 
 24  5  1  0  0  0  0 
 26  7  1  0  0  0  0 
 27  8  1  0  0  0  0 
M  END 
>  <HBA> 
2 
 
>  <HBD> 
0 
 
>  <TPSA> 
45.23 
 
>  <cid> 
59034 
 
>  <dipole> 
3.76 
 
>  <excitation_energy_1> 
2.131 
 
>  <excitation_energy_2> 
3.239 
 
>  <excitation_energy_3> 
3.945 
 
>  <excitation_energy_4> 
4.052 
 
>  <homo_energy> 
-5.567 
 
>  <homo_lumo_gap> 
3.314 
 
>  <logP> 
3.663 
 
>  <lumo_energy> 
-2.253 
 
>  <melting_point> 
76.81 
 
>  <molecular_refractivity> 
65.88 
 
>  <oscillator_strength_1> 
0.0023 
 
>  <oscillator_strength_2> 
0.0875 
 
>  <oscillator_strength_3> 
0.1695 
 
>  <oscillator_strength_4> 
0.0091 
 
>  <open_babel_can_smiles> 
Cc1oc(c(c1)C(=S)c1ccccc1)C 
 
>  <mulliken_charges> 
27 
1   -0.529032 
2   -0.532692 
3   -0.121561 
4   -0.134916 
5   -0.133613 
6   -0.155855 
7   -0.163622 
8   -0.218088 
9   0.340325 
10   0.326554 
11   0.120448 
12   0.049664 
13   -0.15361 
14   -0.463613 
15   -0.166537 
16   0.173456 
17   0.17395 
18   0.171876 
19   0.175255 
20   0.176159 
21   0.187506 
22   0.136792 
23   0.138551 
24   0.135762 
25   0.160098 
26   0.143886 
27   0.162857 
 
>  <lowdin_charges> 
27 
1   -0.441365 
2   -0.445604 
3   -0.145293 
4   -0.154807 
5   -0.159171 
6   -0.136327 
7   -0.14949 
8   -0.201498 
9   0.072228 
10   0.098961 
11   -0.019223 
12   -0.073283 
13   -0.06796 
14   -0.107775 
15   -0.110518 
16   0.17269 
17   0.168883 
18   0.168447 
19   0.17024 
20   0.172645 
21   0.17903 
22   0.161698 
23   0.161973 
24   0.161062 
25   0.176139 
26   0.165065 
27   0.183254 
 
$$$$ 
 
