PCCDB-ID:  52364 
public computational chemistry database (PCCDB) project, http://pccdb.org 
 
 34 34  0  0  0  0  0  0  0  0999 V2000 
    2.7889   -1.4110    1.1058 C   0  0  0  0  0  0  0  0  0  0  0  0 
    2.8788    0.5608    4.2864 C   0  0  0  0  0  0  0  0  0  0  0  0 
    5.2852    6.8529   -3.3172 C   0  0  0  0  0  0  0  0  0  0  0  0 
    1.6794   -0.3565    1.1644 C   0  0  0  0  0  0  0  0  0  0  0  0 
    1.7106    0.9265    3.3663 C   0  0  0  0  0  0  0  0  0  0  0  0 
    3.9533    4.8966   -1.4776 C   0  0  0  0  0  0  0  0  0  0  0  0 
    5.1278    3.0665   -2.5257 C   0  0  0  0  0  0  0  0  0  0  0  0 
    3.3239    4.0133   -0.6035 C   0  0  0  0  0  0  0  0  0  0  0  0 
    4.5150    2.1744   -1.6570 C   0  0  0  0  0  0  0  0  0  0  0  0 
    5.5525    5.3583   -3.4065 C   0  0  0  0  0  0  0  0  0  0  0  0 
    4.8595    4.4428   -2.4475 C   0  0  0  0  0  0  0  0  0  0  0  0 
    3.6167    2.6507   -0.6970 C   0  0  0  0  0  0  0  0  0  0  0  0 
    2.7093    1.9000    1.4066 C   0  0  0  0  0  0  0  0  0  0  0  0 
    2.0249    0.8473    1.9322 N   0  0  0  0  0  0  0  0  0  0  0  0 
    6.3209    4.9166   -4.2489 O   0  0  0  0  0  0  0  0  0  0  0  0 
    3.0371    2.9005    2.0164 O   0  0  0  0  0  0  0  0  0  0  0  0 
    2.9932    1.6791    0.0686 O   0  0  0  0  0  0  0  0  0  0  0  0 
    2.4589   -2.2691    0.5083 H   0  0  0  0  0  0  0  0  0  0  0  0 
    3.0528   -1.7751    2.1040 H   0  0  0  0  0  0  0  0  0  0  0  0 
    3.6888   -0.9970    0.6407 H   0  0  0  0  0  0  0  0  0  0  0  0 
    2.5753    0.6645    5.3346 H   0  0  0  0  0  0  0  0  0  0  0  0 
    3.7230    1.2327    4.1077 H   0  0  0  0  0  0  0  0  0  0  0  0 
    3.2113   -0.4707    4.1300 H   0  0  0  0  0  0  0  0  0  0  0  0 
    5.5494    7.2435   -2.3273 H   0  0  0  0  0  0  0  0  0  0  0  0 
    4.2242    7.0751   -3.4835 H   0  0  0  0  0  0  0  0  0  0  0  0 
    5.8823    7.3597   -4.0771 H   0  0  0  0  0  0  0  0  0  0  0  0 
    0.7819   -0.7790    1.6287 H   0  0  0  0  0  0  0  0  0  0  0  0 
    1.4040   -0.0515    0.1528 H   0  0  0  0  0  0  0  0  0  0  0  0 
    1.3875    1.9493    3.5779 H   0  0  0  0  0  0  0  0  0  0  0  0 
    0.8579    0.2631    3.5438 H   0  0  0  0  0  0  0  0  0  0  0  0 
    3.7246    5.9545   -1.3948 H   0  0  0  0  0  0  0  0  0  0  0  0 
    5.8283    2.7205   -3.2784 H   0  0  0  0  0  0  0  0  0  0  0  0 
    2.6347    4.3736    0.1478 H   0  0  0  0  0  0  0  0  0  0  0  0 
    4.7158    1.1088   -1.7062 H   0  0  0  0  0  0  0  0  0  0  0  0 
  1  4  1  0  0  0  0 
  1 19  1  0  0  0  0 
  2 21  1  0  0  0  0 
  3 24  1  0  0  0  0 
  4 27  1  0  0  0  0 
  4 14  1  0  0  0  0 
  5 30  1  0  0  0  0 
  5 29  1  0  0  0  0 
  5  2  1  0  0  0  0 
  6 31  1  0  0  0  0 
  6  8  2  0  0  0  0 
  7 11  2  0  0  0  0 
  7  9  1  0  0  0  0 
  8 33  1  0  0  0  0 
  9 12  2  0  0  0  0 
 10  3  1  0  0  0  0 
 10 11  1  0  0  0  0 
 11  6  1  0  0  0  0 
 12  8  1  0  0  0  0 
 12 17  1  0  0  0  0 
 13 14  1  0  0  0  0 
 13 16  2  0  0  0  0 
 14  5  1  0  0  0  0 
 15 10  2  0  0  0  0 
 17 13  1  0  0  0  0 
 18  1  1  0  0  0  0 
 20  1  1  0  0  0  0 
 22  2  1  0  0  0  0 
 23  2  1  0  0  0  0 
 25  3  1  0  0  0  0 
 26  3  1  0  0  0  0 
 28  4  1  0  0  0  0 
 32  7  1  0  0  0  0 
 34  9  1  0  0  0  0 
M  END 
>  <HBA> 
4 
 
>  <HBD> 
0 
 
>  <TPSA> 
46.61 
 
>  <cid> 
52364 
 
>  <dipole> 
4.53 
 
>  <excitation_energy_1> 
3.778 
 
>  <excitation_energy_2> 
4.698 
 
>  <excitation_energy_3> 
4.747 
 
>  <excitation_energy_4> 
4.965 
 
>  <homo_energy> 
-6.531 
 
>  <homo_lumo_gap> 
5.176 
 
>  <logP> 
2.73 
 
>  <lumo_energy> 
-1.355 
 
>  <melting_point> 
76.02 
 
>  <molecular_refractivity> 
65.84 
 
>  <oscillator_strength_1> 
0.0001 
 
>  <oscillator_strength_2> 
0.337 
 
>  <oscillator_strength_3> 
0.0097 
 
>  <oscillator_strength_4> 
0.1245 
 
>  <open_babel_can_smiles> 
CCN(C(=O)Oc1ccc(cc1)C(=O)C)CC 
 
>  <mulliken_charges> 
34 
1   -0.445838 
2   -0.449063 
3   -0.543346 
4   -0.134854 
5   -0.134744 
6   -0.201619 
7   -0.171316 
8   -0.14275 
9   -0.173387 
10   0.40643 
11   0.085217 
12   0.367032 
13   0.794503 
14   -0.447169 
15   -0.457249 
16   -0.514799 
17   -0.559899 
18   0.149021 
19   0.154118 
20   0.164828 
21   0.147641 
22   0.179754 
23   0.147364 
24   0.171376 
25   0.169656 
26   0.180518 
27   0.147884 
28   0.175074 
29   0.177742 
30   0.141871 
31   0.139014 
32   0.166613 
33   0.166263 
34   0.144117 
 
>  <lowdin_charges> 
34 
1   -0.454387 
2   -0.452232 
3   -0.475871 
4   -0.192018 
5   -0.186491 
6   -0.141148 
7   -0.122958 
8   -0.173271 
9   -0.173696 
10   0.160961 
11   -0.061135 
12   0.118991 
13   0.218098 
14   -0.104262 
15   -0.247082 
16   -0.304426 
17   -0.172504 
18   0.156343 
19   0.151538 
20   0.158928 
21   0.154068 
22   0.167265 
23   0.147341 
24   0.169412 
25   0.167839 
26   0.175704 
27   0.150309 
28   0.16216 
29   0.164709 
30   0.147632 
31   0.162615 
32   0.17941 
33   0.181547 
34   0.16661 
 
$$$$ 
 
