PCCDB-ID:  24213 
public computational chemistry database (PCCDB) project, http://pccdb.org 
 
 33 34  0  0  0  0  0  0  0  0999 V2000 
   -0.5599    0.5412   -1.8266 C   0  0  0  0  0  0  0  0  0  0  0  0 
    0.4365    0.0465    0.2957 C   0  0  0  0  0  0  0  0  0  0  0  0 
   -0.3335    4.0729   -2.2903 C   0  0  0  0  0  0  0  0  0  0  0  0 
   -1.3136    3.8476   -0.1200 C   0  0  0  0  0  0  0  0  0  0  0  0 
   -0.9999   -0.7741   -1.9330 C   0  0  0  0  0  0  0  0  0  0  0  0 
   -0.0007   -1.2719    0.2031 C   0  0  0  0  0  0  0  0  0  0  0  0 
   -1.3011    5.0168   -2.6337 C   0  0  0  0  0  0  0  0  0  0  0  0 
   -2.2830    4.7874   -0.4474 C   0  0  0  0  0  0  0  0  0  0  0  0 
    2.0498    2.5683   -1.3750 C   0  0  0  0  0  0  0  0  0  0  0  0 
    3.1276    1.7635   -0.7946 C   0  0  0  0  0  0  0  0  0  0  0  0 
    0.1712    0.9795   -0.7143 C   0  0  0  0  0  0  0  0  0  0  0  0 
   -0.3156    3.4652   -1.0291 C   0  0  0  0  0  0  0  0  0  0  0  0 
   -0.7270   -1.7060   -0.9169 C   0  0  0  0  0  0  0  0  0  0  0  0 
   -2.2935    5.3924   -1.7167 C   0  0  0  0  0  0  0  0  0  0  0  0 
    0.7016    2.4086   -0.6086 C   0  0  0  0  0  0  0  0  0  0  0  0 
    3.9826    1.1401   -0.3168 N   0  0  0  0  0  0  0  0  0  0  0  0 
   -1.2218   -3.0123   -0.9905 N   0  0  0  0  0  0  0  0  0  0  0  0 
   -3.2273    6.3846   -2.0297 N   0  0  0  0  0  0  0  0  0  0  0  0 
   -0.8025    1.2426   -2.6208 H   0  0  0  0  0  0  0  0  0  0  0  0 
    1.0067    0.3510    1.1703 H   0  0  0  0  0  0  0  0  0  0  0  0 
    0.4163    3.8186   -3.0346 H   0  0  0  0  0  0  0  0  0  0  0  0 
   -1.3347    3.3915    0.8674 H   0  0  0  0  0  0  0  0  0  0  0  0 
   -1.5726   -1.0845   -2.8046 H   0  0  0  0  0  0  0  0  0  0  0  0 
    0.2178   -1.9720    1.0066 H   0  0  0  0  0  0  0  0  0  0  0  0 
   -1.2805    5.4746   -3.6204 H   0  0  0  0  0  0  0  0  0  0  0  0 
   -3.0361    5.0667    0.2863 H   0  0  0  0  0  0  0  0  0  0  0  0 
    1.9301    2.2727   -2.4237 H   0  0  0  0  0  0  0  0  0  0  0  0 
    2.3624    3.6197   -1.3657 H   0  0  0  0  0  0  0  0  0  0  0  0 
    0.9303    2.5887    0.4492 H   0  0  0  0  0  0  0  0  0  0  0  0 
   -1.3887   -3.3487   -1.9311 H   0  0  0  0  0  0  0  0  0  0  0  0 
   -0.7026   -3.6914   -0.4472 H   0  0  0  0  0  0  0  0  0  0  0  0 
   -3.4059    6.5039   -3.0193 H   0  0  0  0  0  0  0  0  0  0  0  0 
   -4.0913    6.3364   -1.5037 H   0  0  0  0  0  0  0  0  0  0  0  0 
  1 11  1  0  0  0  0 
  2 20  1  0  0  0  0 
  3 12  1  0  0  0  0 
  4 22  1  0  0  0  0 
  5  1  2  0  0  0  0 
  5 13  1  0  0  0  0 
  6  2  1  0  0  0  0 
  6 24  1  0  0  0  0 
  7  3  2  0  0  0  0 
  7 14  1  0  0  0  0 
  8  4  1  0  0  0  0 
  8 26  1  0  0  0  0 
  9 28  1  0  0  0  0 
  9 10  1  0  0  0  0 
  9 15  1  0  0  0  0 
 10 16  3  0  0  0  0 
 11 15  1  0  0  0  0 
 11  2  2  0  0  0  0 
 12 15  1  0  0  0  0 
 12  4  2  0  0  0  0 
 13  6  2  0  0  0  0 
 14  8  2  0  0  0  0 
 15 29  1  0  0  0  0 
 17 13  1  0  0  0  0 
 17 31  1  0  0  0  0 
 18 14  1  0  0  0  0 
 18 33  1  0  0  0  0 
 19  1  1  0  0  0  0 
 21  3  1  0  0  0  0 
 23  5  1  0  0  0  0 
 25  7  1  0  0  0  0 
 27  9  1  0  0  0  0 
 30 17  1  0  0  0  0 
 32 18  1  0  0  0  0 
M  END 
>  <HBA> 
3 
 
>  <HBD> 
2 
 
>  <TPSA> 
75.83 
 
>  <cid> 
24213 
 
>  <dipole> 
5.19 
 
>  <excitation_energy_1> 
4.454 
 
>  <excitation_energy_2> 
4.591 
 
>  <excitation_energy_3> 
4.698 
 
>  <excitation_energy_4> 
4.742 
 
>  <homo_energy> 
-5.317 
 
>  <homo_lumo_gap> 
5.208 
 
>  <logP> 
4.059 
 
>  <lumo_energy> 
-0.109 
 
>  <melting_point> 
170.43 
 
>  <molecular_refractivity> 
74.07 
 
>  <oscillator_strength_1> 
0.0395 
 
>  <oscillator_strength_2> 
0.0162 
 
>  <oscillator_strength_3> 
0.008 
 
>  <oscillator_strength_4> 
0.0072 
 
>  <open_babel_can_smiles> 
N#CCC(c1ccc(cc1)N)c1ccc(cc1)N 
 
>  <mulliken_charges> 
33 
1   -0.190503 
2   -0.187702 
3   -0.197627 
4   -0.179964 
5   -0.173453 
6   -0.170645 
7   -0.179314 
8   -0.171133 
9   -0.346489 
10   0.361955 
11   0.17289 
12   0.164701 
13   0.310256 
14   0.312981 
15   -0.271838 
16   -0.487265 
17   -0.787735 
18   -0.788381 
19   0.128608 
20   0.133181 
21   0.121878 
22   0.12998 
23   0.115782 
24   0.119746 
25   0.11794 
26   0.120568 
27   0.192198 
28   0.194762 
29   0.154041 
30   0.318916 
31   0.32053 
32   0.320193 
33   0.320944 
 
>  <lowdin_charges> 
33 
1   -0.15517 
2   -0.150768 
3   -0.167834 
4   -0.145494 
5   -0.198586 
6   -0.198749 
7   -0.200104 
8   -0.196102 
9   -0.274296 
10   -0.01218 
11   -0.03739 
12   -0.03086 
13   0.062351 
14   0.061664 
15   -0.108839 
16   -0.135292 
17   -0.490269 
18   -0.486628 
19   0.159549 
20   0.159899 
21   0.15473 
22   0.157855 
23   0.152434 
24   0.155201 
25   0.152486 
26   0.155407 
27   0.17784 
28   0.181004 
29   0.1574 
30   0.273858 
31   0.277032 
32   0.273887 
33   0.275963 
 
$$$$ 
 
