PCCDB-ID:  21454 
public computational chemistry database (PCCDB) project, http://pccdb.org 
 
 34 36  0  0  0  0  0  0  0  0999 V2000 
    0.9273    1.4775   -0.1714 C   0  0  0  0  0  0  0  0  0  0  0  0 
    1.5608   -4.0804    5.3377 C   0  0  0  0  0  0  0  0  0  0  0  0 
    1.6728   -5.4557    5.0475 C   0  0  0  0  0  0  0  0  0  0  0  0 
    1.8149    0.2623    0.1413 C   0  0  0  0  0  0  0  0  0  0  0  0 
   -0.4628    1.3099    0.4615 C   0  0  0  0  0  0  0  0  0  0  0  0 
    1.0653   -3.1865    4.3967 C   0  0  0  0  0  0  0  0  0  0  0  0 
    1.2920   -5.9629    3.8103 C   0  0  0  0  0  0  0  0  0  0  0  0 
    1.1027   -1.0482   -0.2469 C   0  0  0  0  0  0  0  0  0  0  0  0 
   -1.0758   -0.0427    0.0501 C   0  0  0  0  0  0  0  0  0  0  0  0 
   -0.0517   -4.0552    1.0341 C   0  0  0  0  0  0  0  0  0  0  0  0 
   -0.2147   -1.5955    1.7608 C   0  0  0  0  0  0  0  0  0  0  0  0 
    0.1339   -3.0482    1.9470 C   0  0  0  0  0  0  0  0  0  0  0  0 
    0.6733   -3.6662    3.1339 C   0  0  0  0  0  0  0  0  0  0  0  0 
    0.7933   -5.0595    2.8662 C   0  0  0  0  0  0  0  0  0  0  0  0 
    0.3406   -5.2648    1.5794 N   0  0  0  0  0  0  0  0  0  0  0  0 
   -0.2335   -1.2062    0.3460 N   0  0  0  0  0  0  0  0  0  0  0  0 
    0.8145    1.5697   -1.2625 H   0  0  0  0  0  0  0  0  0  0  0  0 
    1.4025    2.4047    0.1729 H   0  0  0  0  0  0  0  0  0  0  0  0 
    1.8666   -3.7174    6.3153 H   0  0  0  0  0  0  0  0  0  0  0  0 
    2.0626   -6.1316    5.8039 H   0  0  0  0  0  0  0  0  0  0  0  0 
    2.0594    0.2506    1.2123 H   0  0  0  0  0  0  0  0  0  0  0  0 
    2.7707    0.3310   -0.3946 H   0  0  0  0  0  0  0  0  0  0  0  0 
   -1.1299    2.1269    0.1558 H   0  0  0  0  0  0  0  0  0  0  0  0 
   -0.3817    1.3628    1.5564 H   0  0  0  0  0  0  0  0  0  0  0  0 
    0.9820   -2.1292    4.6355 H   0  0  0  0  0  0  0  0  0  0  0  0 
    1.3771   -7.0235    3.5871 H   0  0  0  0  0  0  0  0  0  0  0  0 
    1.7066   -1.9178    0.0310 H   0  0  0  0  0  0  0  0  0  0  0  0 
    0.9832   -1.0755   -1.3405 H   0  0  0  0  0  0  0  0  0  0  0  0 
   -1.2502   -0.0330   -1.0367 H   0  0  0  0  0  0  0  0  0  0  0  0 
   -2.0522   -0.1903    0.5265 H   0  0  0  0  0  0  0  0  0  0  0  0 
   -0.4358   -3.9932    0.0264 H   0  0  0  0  0  0  0  0  0  0  0  0 
    0.4679   -0.9802    2.3761 H   0  0  0  0  0  0  0  0  0  0  0  0 
   -1.2206   -1.4032    2.1598 H   0  0  0  0  0  0  0  0  0  0  0  0 
    0.3335   -6.1492    1.0965 H   0  0  0  0  0  0  0  0  0  0  0  0 
  1  4  1  0  0  0  0 
  1 18  1  0  0  0  0 
  1  5  1  0  0  0  0 
  2 19  1  0  0  0  0 
  3  2  1  0  0  0  0 
  3 20  1  0  0  0  0 
  4 21  1  0  0  0  0 
  5 24  1  0  0  0  0 
  6 25  1  0  0  0  0 
  6  2  2  0  0  0  0 
  7  3  2  0  0  0  0 
  8 27  1  0  0  0  0 
  8  4  1  0  0  0  0 
  8 16  1  0  0  0  0 
  9 16  1  0  0  0  0 
  9  5  1  0  0  0  0 
  9 30  1  0  0  0  0 
 10 15  1  0  0  0  0 
 10 12  2  0  0  0  0 
 11 12  1  0  0  0  0 
 11 33  1  0  0  0  0 
 11 32  1  0  0  0  0 
 12 13  1  0  0  0  0 
 13  6  1  0  0  0  0 
 14 13  2  0  0  0  0 
 14  7  1  0  0  0  0 
 15 14  1  0  0  0  0 
 16 11  1  0  0  0  0 
 17  1  1  0  0  0  0 
 22  4  1  0  0  0  0 
 23  5  1  0  0  0  0 
 26  7  1  0  0  0  0 
 28  8  1  0  0  0  0 
 29  9  1  0  0  0  0 
 31 10  1  0  0  0  0 
 34 15  1  0  0  0  0 
M  END 
>  <HBA> 
1 
 
>  <HBD> 
1 
 
>  <TPSA> 
19.03 
 
>  <cid> 
21454 
 
>  <dipole> 
1.55 
 
>  <excitation_energy_1> 
4.452 
 
>  <excitation_energy_2> 
4.578 
 
>  <excitation_energy_3> 
4.664 
 
>  <excitation_energy_4> 
4.809 
 
>  <homo_energy> 
-5.197 
 
>  <homo_lumo_gap> 
5.187 
 
>  <logP> 
3.092 
 
>  <lumo_energy> 
-0.011 
 
>  <melting_point> 
121.66 
 
>  <molecular_refractivity> 
72.0 
 
>  <oscillator_strength_1> 
0.0272 
 
>  <oscillator_strength_2> 
0.0348 
 
>  <oscillator_strength_3> 
0.0012 
 
>  <oscillator_strength_4> 
0.0222 
 
>  <open_babel_can_smiles> 
C1CCN(CC1)Cc1c[nH]c2c1cccc2 
 
>  <mulliken_charges> 
34 
1   -0.257124 
2   -0.140487 
3   -0.15216 
4   -0.266987 
5   -0.264945 
6   -0.211468 
7   -0.163475 
8   -0.145036 
9   -0.139395 
10   0.012505 
11   -0.199425 
12   0.057643 
13   0.07482 
14   0.314825 
15   -0.694959 
16   -0.38135 
17   0.12587 
18   0.131622 
19   0.117536 
20   0.120037 
21   0.136211 
22   0.129762 
23   0.128646 
24   0.13377 
25   0.120283 
26   0.118079 
27   0.147051 
28   0.128683 
29   0.130877 
30   0.135094 
31   0.157656 
32   0.124286 
33   0.147102 
34   0.32445 
 
>  <lowdin_charges> 
34 
1   -0.276714 
2   -0.177241 
3   -0.168132 
4   -0.292341 
5   -0.294243 
6   -0.164083 
7   -0.187077 
8   -0.207939 
9   -0.202756 
10   -0.1274 
11   -0.193047 
12   -0.072808 
13   -0.036699 
14   0.031225 
15   -0.201659 
16   -0.187962 
17   0.134136 
18   0.143292 
19   0.152821 
20   0.155634 
21   0.138913 
22   0.144951 
23   0.145042 
24   0.137518 
25   0.152126 
26   0.152309 
27   0.151899 
28   0.134698 
29   0.135448 
30   0.14283 
31   0.169825 
32   0.127247 
33   0.150406 
34   0.289782 
 
$$$$ 
 
