PCCDB-ID:  71661 
public computational chemistry database (PCCDB) project, http://pccdb.org 
 
 32 32  0  0  0  0  0  0  0  0999 V2000 
    4.3415    2.4180    0.0600 C   0  0  0  0  0  0  0  0  0  0  0  0 
    4.9384    1.2489   -0.7330 C   0  0  0  0  0  0  0  0  0  0  0  0 
    5.3918    0.0600    0.1299 C   0  0  0  0  0  0  0  0  0  0  0  0 
    7.6663   -4.2368    5.0144 C   0  0  0  0  0  0  0  0  0  0  0  0 
    6.6258   -4.6796    4.2005 C   0  0  0  0  0  0  0  0  0  0  0  0 
    4.2481   -0.6496    0.8690 C   0  0  0  0  0  0  0  0  0  0  0  0 
    8.0342   -2.8934    4.9816 C   0  0  0  0  0  0  0  0  0  0  0  0 
    5.9473   -3.7817    3.3762 C   0  0  0  0  0  0  0  0  0  0  0  0 
    4.6911   -1.8956    1.6251 C   0  0  0  0  0  0  0  0  0  0  0  0 
    7.3909   -1.9654    4.1522 C   0  0  0  0  0  0  0  0  0  0  0  0 
    6.3149   -2.4332    3.3607 C   0  0  0  0  0  0  0  0  0  0  0  0 
    7.8798   -0.5392    4.1332 C   0  0  0  0  0  0  0  0  0  0  0  0 
    9.0696   -0.1564    4.3827 N   0  0  0  0  0  0  0  0  0  0  0  0 
    6.9658    0.4270    3.8635 O   0  0  0  0  0  0  0  0  0  0  0  0 
    5.6635   -1.4952    2.6007 O   0  0  0  0  0  0  0  0  0  0  0  0 
    4.1014    3.2577   -0.6018 H   0  0  0  0  0  0  0  0  0  0  0  0 
    5.0482    2.7808    0.8163 H   0  0  0  0  0  0  0  0  0  0  0  0 
    3.4166    2.1366    0.5768 H   0  0  0  0  0  0  0  0  0  0  0  0 
    5.8050    1.6113   -1.3011 H   0  0  0  0  0  0  0  0  0  0  0  0 
    4.2104    0.9001   -1.4799 H   0  0  0  0  0  0  0  0  0  0  0  0 
    6.1374    0.3995    0.8597 H   0  0  0  0  0  0  0  0  0  0  0  0 
    5.9008   -0.6725   -0.5130 H   0  0  0  0  0  0  0  0  0  0  0  0 
    8.1850   -4.9269    5.6725 H   0  0  0  0  0  0  0  0  0  0  0  0 
    6.3277   -5.7243    4.2078 H   0  0  0  0  0  0  0  0  0  0  0  0 
    3.4740   -0.9613    0.1532 H   0  0  0  0  0  0  0  0  0  0  0  0 
    3.7609    0.0331    1.5763 H   0  0  0  0  0  0  0  0  0  0  0  0 
    8.8340   -2.5430    5.6274 H   0  0  0  0  0  0  0  0  0  0  0  0 
    5.1308   -4.1332    2.7564 H   0  0  0  0  0  0  0  0  0  0  0  0 
    5.1491   -2.6286    0.9475 H   0  0  0  0  0  0  0  0  0  0  0  0 
    3.8397   -2.3725    2.1291 H   0  0  0  0  0  0  0  0  0  0  0  0 
    9.6739   -0.9592    4.5556 H   0  0  0  0  0  0  0  0  0  0  0  0 
    6.1585    0.0078    3.5173 H   0  0  0  0  0  0  0  0  0  0  0  0 
  1 18  1  0  0  0  0 
  1 17  1  0  0  0  0 
  2  1  1  0  0  0  0 
  2  3  1  0  0  0  0 
  3 21  1  0  0  0  0 
  3  6  1  0  0  0  0 
  4 23  1  0  0  0  0 
  5 24  1  0  0  0  0 
  5  4  2  0  0  0  0 
  6 26  1  0  0  0  0 
  6  9  1  0  0  0  0 
  7  4  1  0  0  0  0 
  7 27  1  0  0  0  0 
  8  5  1  0  0  0  0 
  9 30  1  0  0  0  0 
  9 15  1  0  0  0  0 
 10  7  2  0  0  0  0 
 11  8  2  0  0  0  0 
 11 10  1  0  0  0  0 
 12 10  1  0  0  0  0 
 12 13  2  0  0  0  0 
 13 31  1  0  0  0  0 
 14 12  1  0  0  0  0 
 15 11  1  0  0  0  0 
 16  1  1  0  0  0  0 
 19  2  1  0  0  0  0 
 20  2  1  0  0  0  0 
 22  3  1  0  0  0  0 
 25  6  1  0  0  0  0 
 28  8  1  0  0  0  0 
 29  9  1  0  0  0  0 
 32 14  1  0  0  0  0 
M  END 
>  <HBA> 
3 
 
>  <HBD> 
1 
 
>  <TPSA> 
52.32 
 
>  <cid> 
71661 
 
>  <dipole> 
5.97 
 
>  <excitation_energy_1> 
4.682 
 
>  <excitation_energy_2> 
4.895 
 
>  <excitation_energy_3> 
5.146 
 
>  <excitation_energy_4> 
5.592 
 
>  <homo_energy> 
-6.343 
 
>  <homo_lumo_gap> 
5.391 
 
>  <logP> 
3.055 
 
>  <lumo_energy> 
-0.952 
 
>  <melting_point> 
96.58 
 
>  <molecular_refractivity> 
60.26 
 
>  <oscillator_strength_1> 
0.0847 
 
>  <oscillator_strength_2> 
0.0105 
 
>  <oscillator_strength_3> 
0.0599 
 
>  <oscillator_strength_4> 
0.0812 
 
>  <open_babel_can_smiles> 
CCCCCOc1ccccc1C(=N)O 
 
>  <mulliken_charges> 
32 
1   -0.448193 
2   -0.250879 
3   -0.25723 
4   -0.129276 
5   -0.13439 
6   -0.288667 
7   -0.197968 
8   -0.185813 
9   -0.039339 
10   0.038768 
11   0.3413 
12   0.437912 
13   -0.590636 
14   -0.605776 
15   -0.565205 
16   0.145718 
17   0.154892 
18   0.141701 
19   0.139757 
20   0.127547 
21   0.161299 
22   0.128446 
23   0.137263 
24   0.139666 
25   0.141983 
26   0.154026 
27   0.146279 
28   0.143132 
29   0.14965 
30   0.148498 
31   0.281983 
32   0.433552 
 
>  <lowdin_charges> 
32 
1   -0.450167 
2   -0.273902 
3   -0.282477 
4   -0.172266 
5   -0.136098 
6   -0.286452 
7   -0.141433 
8   -0.20501 
9   -0.126822 
10   -0.070238 
11   0.100355 
12   0.129215 
13   -0.400092 
14   -0.372528 
15   -0.212484 
16   0.152662 
17   0.153957 
18   0.145079 
19   0.147453 
20   0.138031 
21   0.154471 
22   0.142924 
23   0.164446 
24   0.161664 
25   0.152442 
26   0.152904 
27   0.166523 
28   0.167609 
29   0.146031 
30   0.145056 
31   0.254217 
32   0.354932 
 
$$$$ 
 
