PCCDB-ID:  67058 
public computational chemistry database (PCCDB) project, http://pccdb.org 
 
 21 21  0  0  0  0  0  0  0  0999 V2000 
    0.6345   -0.0450    0.3056 C   0  0  0  0  0  0  0  0  0  0  0  0 
    7.0179    1.2036   -0.5217 C   0  0  0  0  0  0  0  0  0  0  0  0 
    2.8374    1.1801   -0.0175 C   0  0  0  0  0  0  0  0  0  0  0  0 
    4.2161    1.2089   -0.2138 C   0  0  0  0  0  0  0  0  0  0  0  0 
    2.8522   -1.2041   -0.0800 C   0  0  0  0  0  0  0  0  0  0  0  0 
    2.1246   -0.0223    0.0590 C   0  0  0  0  0  0  0  0  0  0  0  0 
    4.2291   -1.1915   -0.2982 C   0  0  0  0  0  0  0  0  0  0  0  0 
    4.9508    0.0227   -0.3629 C   0  0  0  0  0  0  0  0  0  0  0  0 
    4.8823   -2.4956   -0.4682 N   0  0  0  0  0  0  0  0  0  0  0  0 
    4.3360   -3.4687    0.0601 O   0  0  0  0  0  0  0  0  0  0  0  0 
    5.9092   -2.5551   -1.1394 O   0  0  0  0  0  0  0  0  0  0  0  0 
    6.2897   -0.0181   -0.5282 O   0  0  0  0  0  0  0  0  0  0  0  0 
    0.1494    0.8501   -0.0977 H   0  0  0  0  0  0  0  0  0  0  0  0 
    0.4071   -0.0837    1.3792 H   0  0  0  0  0  0  0  0  0  0  0  0 
    0.1658   -0.9196   -0.1570 H   0  0  0  0  0  0  0  0  0  0  0  0 
    8.0629    0.9173   -0.6460 H   0  0  0  0  0  0  0  0  0  0  0  0 
    6.8951    1.7402    0.4275 H   0  0  0  0  0  0  0  0  0  0  0  0 
    6.7176    1.8537   -1.3528 H   0  0  0  0  0  0  0  0  0  0  0  0 
    2.3059    2.1239    0.0811 H   0  0  0  0  0  0  0  0  0  0  0  0 
    4.7231    2.1652   -0.2543 H   0  0  0  0  0  0  0  0  0  0  0  0 
    2.3627   -2.1699   -0.0253 H   0  0  0  0  0  0  0  0  0  0  0  0 
  1 14  1  0  0  0  0 
  2 17  1  0  0  0  0 
  3  6  1  0  0  0  0 
  3 19  1  0  0  0  0 
  4  3  2  0  0  0  0 
  5 21  1  0  0  0  0 
  5  6  2  0  0  0  0 
  6  1  1  0  0  0  0 
  7  5  1  0  0  0  0 
  8  7  2  0  0  0  0 
  8  4  1  0  0  0  0 
  9  7  1  0  0  0  0 
  9 10  2  0  0  0  0 
 11  9  2  0  0  0  0 
 12  2  1  0  0  0  0 
 12  8  1  0  0  0  0 
 13  1  1  0  0  0  0 
 15  1  1  0  0  0  0 
 16  2  1  0  0  0  0 
 18  2  1  0  0  0  0 
 20  4  1  0  0  0  0 
M  END 
>  <HBA> 
1 
 
>  <HBD> 
0 
 
>  <TPSA> 
55.05 
 
>  <cid> 
67058 
 
>  <dipole> 
5.71 
 
>  <excitation_energy_1> 
3.612 
 
>  <excitation_energy_2> 
3.696 
 
>  <excitation_energy_3> 
4.254 
 
>  <excitation_energy_4> 
4.817 
 
>  <homo_energy> 
-6.416 
 
>  <homo_lumo_gap> 
4.416 
 
>  <logP> 
2.435 
 
>  <lumo_energy> 
-2.0 
 
>  <melting_point> 
53.06 
 
>  <molecular_refractivity> 
46.72 
 
>  <oscillator_strength_1> 
0.0692 
 
>  <oscillator_strength_2> 
0.0051 
 
>  <oscillator_strength_3> 
0.0039 
 
>  <oscillator_strength_4> 
0.1042 
 
>  <open_babel_can_smiles> 
COc1ccc(cc1N(=O)=O)C 
 
>  <mulliken_charges> 
21 
1   -0.530352 
2   -0.222959 
3   -0.167104 
4   -0.207497 
5   -0.210748 
6   0.169047 
7   0.239217 
8   0.374972 
9   0.354412 
10   -0.397759 
11   -0.375706 
12   -0.481419 
13   0.159615 
14   0.171996 
15   0.166214 
16   0.185413 
17   0.157307 
18   0.159413 
19   0.13635 
20   0.145674 
21   0.173915 
 
>  <lowdin_charges> 
21 
1   -0.440475 
2   -0.27561 
3   -0.136392 
4   -0.207827 
5   -0.139228 
6   -0.012716 
7   -0.020496 
8   0.112967 
9   0.308078 
10   -0.261369 
11   -0.232344 
12   -0.167955 
13   0.160454 
14   0.163429 
15   0.163941 
16   0.170096 
17   0.149032 
18   0.150698 
19   0.162264 
20   0.169796 
21   0.183657 
 
$$$$ 
 
