PCCDB-ID:  21450 
public computational chemistry database (PCCDB) project, http://pccdb.org 
 
 20 20  0  0  0  0  0  0  0  0999 V2000 
   -0.7357    0.9880    0.0823 C   0  0  0  0  0  0  0  0  0  0  0  0 
    1.2805   -0.3299    0.0550 C   0  0  0  0  0  0  0  0  0  0  0  0 
   -1.4991   -0.1715    0.0336 C   0  0  0  0  0  0  0  0  0  0  0  0 
    0.5274   -1.4933    0.0113 C   0  0  0  0  0  0  0  0  0  0  0  0 
    0.6666    0.9308    0.1046 C   0  0  0  0  0  0  0  0  0  0  0  0 
   -0.8797   -1.4350    0.0041 C   0  0  0  0  0  0  0  0  0  0  0  0 
    1.5439    2.1338    0.1523 C   0  0  0  0  0  0  0  0  0  0  0  0 
   -1.6387   -2.5990    0.0146 N   0  0  0  0  0  0  0  0  0  0  0  0 
    1.7566    4.4446    0.8160 N   0  0  0  0  0  0  0  0  0  0  0  0 
    0.9452    3.3098    0.5683 N   0  0  0  0  0  0  0  0  0  0  0  0 
    2.7344    2.1079   -0.1541 O   0  0  0  0  0  0  0  0  0  0  0  0 
   -1.2441    1.9482    0.0660 H   0  0  0  0  0  0  0  0  0  0  0  0 
    2.3648   -0.3735    0.0499 H   0  0  0  0  0  0  0  0  0  0  0  0 
   -2.5846   -0.1063    0.0102 H   0  0  0  0  0  0  0  0  0  0  0  0 
    1.0226   -2.4614   -0.0156 H   0  0  0  0  0  0  0  0  0  0  0  0 
   -2.5892   -2.5115   -0.3210 H   0  0  0  0  0  0  0  0  0  0  0  0 
   -1.1801   -3.4284   -0.3396 H   0  0  0  0  0  0  0  0  0  0  0  0 
    1.8416    4.9442   -0.0702 H   0  0  0  0  0  0  0  0  0  0  0  0 
    2.6959    4.0829    1.0029 H   0  0  0  0  0  0  0  0  0  0  0  0 
    0.1678    3.2409    1.2118 H   0  0  0  0  0  0  0  0  0  0  0  0 
  1  5  1  0  0  0  0 
  2  5  2  0  0  0  0 
  3  1  2  0  0  0  0 
  4  2  1  0  0  0  0 
  5  7  1  0  0  0  0 
  6  4  2  0  0  0  0 
  6  8  1  0  0  0  0 
  6  3  1  0  0  0  0 
  7 10  1  0  0  0  0 
  9 19  1  0  0  0  0 
 10  9  1  0  0  0  0 
 10 20  1  0  0  0  0 
 11  7  2  0  0  0  0 
 12  1  1  0  0  0  0 
 13  2  1  0  0  0  0 
 14  3  1  0  0  0  0 
 15  4  1  0  0  0  0 
 16  8  1  0  0  0  0 
 17  8  1  0  0  0  0 
 18  9  1  0  0  0  0 
M  END 
>  <HBA> 
4 
 
>  <HBD> 
3 
 
>  <TPSA> 
81.14 
 
>  <cid> 
21450 
 
>  <dipole> 
4.27 
 
>  <excitation_energy_1> 
4.623 
 
>  <excitation_energy_2> 
4.73 
 
>  <excitation_energy_3> 
4.884 
 
>  <excitation_energy_4> 
4.949 
 
>  <homo_energy> 
-5.761 
 
>  <homo_lumo_gap> 
5.124 
 
>  <logP> 
1.545 
 
>  <lumo_energy> 
-0.637 
 
>  <melting_point> 
170.46 
 
>  <molecular_refractivity> 
41.74 
 
>  <oscillator_strength_1> 
0.1615 
 
>  <oscillator_strength_2> 
0.2035 
 
>  <oscillator_strength_3> 
0.0233 
 
>  <oscillator_strength_4> 
0.0151 
 
>  <open_babel_can_smiles> 
NNC(=O)c1ccc(cc1)N 
 
>  <mulliken_charges> 
20 
1   -0.191484 
2   -0.16585 
3   -0.178125 
4   -0.179401 
5   0.068558 
6   0.329952 
7   0.529798 
8   -0.78999 
9   -0.568741 
10   -0.50798 
11   -0.526156 
12   0.135266 
13   0.161437 
14   0.121943 
15   0.124564 
16   0.326114 
17   0.327159 
18   0.322318 
19   0.32449 
20   0.336126 
 
>  <lowdin_charges> 
20 
1   -0.146344 
2   -0.117903 
3   -0.198632 
4   -0.198265 
5   -0.071519 
6   0.071729 
7   0.146781 
8   -0.476187 
9   -0.461659 
10   -0.244889 
11   -0.31607 
12   0.15984 
13   0.174681 
14   0.15294 
15   0.1559 
16   0.27867 
17   0.280847 
18   0.263424 
19   0.263534 
20   0.283121 
 
$$$$ 
 
