PCCDB-ID:  23638 
public computational chemistry database (PCCDB) project, http://pccdb.org 
 
 31 33  0  0  0  0  0  0  0  0999 V2000 
   -1.5328    0.0306    0.0715 C   0  0  0  0  0  0  0  0  0  0  0  0 
    4.2214   -0.3493    4.0058 C   0  0  0  0  0  0  0  0  0  0  0  0 
   -0.7925   -1.1343   -0.1314 C   0  0  0  0  0  0  0  0  0  0  0  0 
   -0.8647    1.2468    0.2165 C   0  0  0  0  0  0  0  0  0  0  0  0 
    3.9755    0.9311    3.5077 C   0  0  0  0  0  0  0  0  0  0  0  0 
    4.0228   -1.4558    3.1787 C   0  0  0  0  0  0  0  0  0  0  0  0 
    0.6002   -1.0801   -0.1948 C   0  0  0  0  0  0  0  0  0  0  0  0 
    0.5282    1.2955    0.1521 C   0  0  0  0  0  0  0  0  0  0  0  0 
    3.5361    1.1012    2.1943 C   0  0  0  0  0  0  0  0  0  0  0  0 
    3.5835   -1.2810    1.8659 C   0  0  0  0  0  0  0  0  0  0  0  0 
    3.4139    1.3802   -0.8797 C   0  0  0  0  0  0  0  0  0  0  0  0 
    3.4799   -0.7037   -1.1729 C   0  0  0  0  0  0  0  0  0  0  0  0 
    1.2847    0.1358   -0.0643 C   0  0  0  0  0  0  0  0  0  0  0  0 
    3.3354   -0.0010    1.3527 C   0  0  0  0  0  0  0  0  0  0  0  0 
    2.8158    0.1834   -0.0676 C   0  0  0  0  0  0  0  0  0  0  0  0 
    3.5778    0.4856   -2.0455 N   0  0  0  0  0  0  0  0  0  0  0  0 
   -2.6178   -0.0090    0.1166 H   0  0  0  0  0  0  0  0  0  0  0  0 
    4.5662   -0.4830    5.0275 H   0  0  0  0  0  0  0  0  0  0  0  0 
   -1.2984   -2.0900   -0.2425 H   0  0  0  0  0  0  0  0  0  0  0  0 
   -1.4272    2.1627    0.3786 H   0  0  0  0  0  0  0  0  0  0  0  0 
    4.1277    1.8010    4.1416 H   0  0  0  0  0  0  0  0  0  0  0  0 
    4.2124   -2.4582    3.5540 H   0  0  0  0  0  0  0  0  0  0  0  0 
    1.1563   -2.0008   -0.3473 H   0  0  0  0  0  0  0  0  0  0  0  0 
    1.0279    2.2524    0.2748 H   0  0  0  0  0  0  0  0  0  0  0  0 
    3.3490    2.1050    1.8208 H   0  0  0  0  0  0  0  0  0  0  0  0 
    3.4317   -2.1527    1.2338 H   0  0  0  0  0  0  0  0  0  0  0  0 
    4.3577    1.7293   -0.4356 H   0  0  0  0  0  0  0  0  0  0  0  0 
    2.7691    2.2454   -1.0685 H   0  0  0  0  0  0  0  0  0  0  0  0 
    2.8885   -1.5223   -1.5976 H   0  0  0  0  0  0  0  0  0  0  0  0 
    4.4473   -1.1026   -0.8339 H   0  0  0  0  0  0  0  0  0  0  0  0 
    4.4667    0.5821   -2.5323 H   0  0  0  0  0  0  0  0  0  0  0  0 
  1 17  1  0  0  0  0 
  1  4  2  0  0  0  0 
  2 18  1  0  0  0  0 
  3  1  1  0  0  0  0 
  4 20  1  0  0  0  0 
  5  2  1  0  0  0  0 
  5 21  1  0  0  0  0 
  6 22  1  0  0  0  0 
  6  2  2  0  0  0  0 
  7  3  2  0  0  0  0 
  7 13  1  0  0  0  0 
  8  4  1  0  0  0  0 
  8 24  1  0  0  0  0 
  9  5  2  0  0  0  0 
 10  6  1  0  0  0  0 
 11 27  1  0  0  0  0 
 11 15  1  0  0  0  0 
 12 30  1  0  0  0  0 
 12 15  1  0  0  0  0 
 13  8  2  0  0  0  0 
 14 10  2  0  0  0  0 
 14  9  1  0  0  0  0 
 15 13  1  0  0  0  0 
 15 14  1  0  0  0  0 
 16 12  1  0  0  0  0 
 16 11  1  0  0  0  0 
 19  3  1  0  0  0  0 
 23  7  1  0  0  0  0 
 25  9  1  0  0  0  0 
 26 10  1  0  0  0  0 
 28 11  1  0  0  0  0 
 29 12  1  0  0  0  0 
 31 16  1  0  0  0  0 
M  END 
>  <HBA> 
1 
 
>  <HBD> 
1 
 
>  <TPSA> 
12.03 
 
>  <cid> 
23638 
 
>  <dipole> 
1.29 
 
>  <excitation_energy_1> 
4.933 
 
>  <excitation_energy_2> 
5.006 
 
>  <excitation_energy_3> 
5.134 
 
>  <excitation_energy_4> 
5.31 
 
>  <homo_energy> 
-5.976 
 
>  <homo_lumo_gap> 
5.736 
 
>  <logP> 
2.905 
 
>  <lumo_energy> 
-0.239 
 
>  <melting_point> 
92.92 
 
>  <molecular_refractivity> 
69.99 
 
>  <oscillator_strength_1> 
0.0184 
 
>  <oscillator_strength_2> 
0.0006 
 
>  <oscillator_strength_3> 
0.0003 
 
>  <oscillator_strength_4> 
0.1392 
 
>  <open_babel_can_smiles> 
N1CC(C1)(c1ccccc1)c1ccccc1 
 
>  <mulliken_charges> 
31 
1   -0.128325 
2   -0.129481 
3   -0.130216 
4   -0.130288 
5   -0.130074 
6   -0.13015 
7   -0.175293 
8   -0.17486 
9   -0.176053 
10   -0.175055 
11   -0.136603 
12   -0.136138 
13   0.183942 
14   0.156792 
15   -0.131437 
16   -0.555675 
17   0.126921 
18   0.127998 
19   0.127288 
20   0.127352 
21   0.128661 
22   0.128719 
23   0.122186 
24   0.122192 
25   0.125823 
26   0.12567 
27   0.127581 
28   0.143694 
29   0.143515 
30   0.127698 
31   0.293617 
 
>  <lowdin_charges> 
31 
1   -0.157439 
2   -0.159521 
3   -0.153992 
4   -0.154479 
5   -0.15472 
6   -0.153013 
7   -0.16487 
8   -0.164087 
9   -0.166426 
10   -0.167633 
11   -0.204031 
12   -0.203864 
13   0.009601 
14   0.002721 
15   0.002835 
16   -0.369055 
17   0.154637 
18   0.156118 
19   0.15654 
20   0.15698 
21   0.157858 
22   0.156592 
23   0.154098 
24   0.153776 
25   0.154507 
26   0.155801 
27   0.132702 
28   0.143058 
29   0.143471 
30   0.132479 
31   0.249359 
 
$$$$ 
 
