PCCDB-ID:  44533 
public computational chemistry database (PCCDB) project, http://pccdb.org 
 
 21 21  0  0  0  0  0  0  0  0999 V2000 
    0.8755    0.1057   -0.0598 C   0  0  0  0  0  0  0  0  0  0  0  0 
    6.5115   -2.3017    0.4925 C   0  0  0  0  0  0  0  0  0  0  0  0 
    3.0775    1.3414   -0.0593 C   0  0  0  0  0  0  0  0  0  0  0  0 
    3.0958   -1.0586    0.2065 C   0  0  0  0  0  0  0  0  0  0  0  0 
    5.1920    0.1717    0.1603 C   0  0  0  0  0  0  0  0  0  0  0  0 
    2.3841    0.1289    0.0398 C   0  0  0  0  0  0  0  0  0  0  0  0 
    4.4767    1.3714   -0.0036 C   0  0  0  0  0  0  0  0  0  0  0  0 
    4.4959   -1.0341    0.2632 C   0  0  0  0  0  0  0  0  0  0  0  0 
    5.1703    2.5780   -0.1655 N   0  0  0  0  0  0  0  0  0  0  0  0 
    5.0975   -2.2518    0.4292 O   0  0  0  0  0  0  0  0  0  0  0  0 
    0.4365    1.0523    0.2732 H   0  0  0  0  0  0  0  0  0  0  0  0 
    0.4463   -0.6998    0.5454 H   0  0  0  0  0  0  0  0  0  0  0  0 
    0.5508   -0.0574   -1.0962 H   0  0  0  0  0  0  0  0  0  0  0  0 
    6.7696   -3.3550    0.6198 H   0  0  0  0  0  0  0  0  0  0  0  0 
    6.9002   -1.7291    1.3457 H   0  0  0  0  0  0  0  0  0  0  0  0 
    6.9730   -1.9255   -0.4307 H   0  0  0  0  0  0  0  0  0  0  0  0 
    2.5267    2.2710   -0.1883 H   0  0  0  0  0  0  0  0  0  0  0  0 
    2.5885   -2.0141    0.2967 H   0  0  0  0  0  0  0  0  0  0  0  0 
    6.2757    0.2021    0.1960 H   0  0  0  0  0  0  0  0  0  0  0  0 
    4.6319    3.4025    0.0715 H   0  0  0  0  0  0  0  0  0  0  0  0 
    6.0818    2.6024    0.2757 H   0  0  0  0  0  0  0  0  0  0  0  0 
  1  6  1  0  0  0  0 
  1 11  1  0  0  0  0 
  1 12  1  0  0  0  0 
  2 14  1  0  0  0  0 
  2 15  1  0  0  0  0 
  3  7  2  0  0  0  0 
  3  6  1  0  0  0  0 
  4  8  1  0  0  0  0 
  4 18  1  0  0  0  0 
  5 19  1  0  0  0  0 
  5  8  2  0  0  0  0 
  6  4  2  0  0  0  0 
  7  5  1  0  0  0  0 
  8 10  1  0  0  0  0 
  9  7  1  0  0  0  0 
  9 20  1  0  0  0  0 
  9 21  1  0  0  0  0 
 10  2  1  0  0  0  0 
 13  1  1  0  0  0  0 
 16  2  1  0  0  0  0 
 17  3  1  0  0  0  0 
M  END 
>  <HBA> 
2 
 
>  <HBD> 
1 
 
>  <TPSA> 
35.25 
 
>  <cid> 
44533 
 
>  <dipole> 
2.26 
 
>  <excitation_energy_1> 
4.576 
 
>  <excitation_energy_2> 
4.744 
 
>  <excitation_energy_3> 
5.161 
 
>  <excitation_energy_4> 
5.278 
 
>  <homo_energy> 
-5.167 
 
>  <homo_lumo_gap> 
5.695 
 
>  <logP> 
2.167 
 
>  <lumo_energy> 
0.528 
 
>  <melting_point> 
63.42 
 
>  <molecular_refractivity> 
42.3 
 
>  <oscillator_strength_1> 
0.0051 
 
>  <oscillator_strength_2> 
0.0351 
 
>  <oscillator_strength_3> 
0.0076 
 
>  <oscillator_strength_4> 
0.0169 
 
>  <open_babel_can_smiles> 
COc1cc(C)cc(c1)N 
 
>  <mulliken_charges> 
21 
1   -0.529155 
2   -0.209846 
3   -0.236895 
4   -0.241144 
5   -0.256124 
6   0.175627 
7   0.315145 
8   0.3802 
9   -0.789201 
10   -0.511421 
11   0.15079 
12   0.156007 
13   0.16466 
14   0.166116 
15   0.146241 
16   0.150281 
17   0.101928 
18   0.119857 
19   0.113955 
20   0.317675 
21   0.315304 
 
>  <lowdin_charges> 
21 
1   -0.440664 
2   -0.276816 
3   -0.235907 
4   -0.224981 
5   -0.260765 
6   0.020173 
7   0.069952 
8   0.112161 
9   -0.49061 
10   -0.200958 
11   0.154773 
12   0.158575 
13   0.160596 
14   0.159442 
15   0.142791 
16   0.144386 
17   0.147614 
18   0.160334 
19   0.153639 
20   0.274269 
21   0.271997 
 
$$$$ 
 
