PCCDB-ID:  8182 
public computational chemistry database (PCCDB) project, http://pccdb.org 
 
 38 37  0  0  0  0  0  0  0  0999 V2000 
    7.4929    0.1517   -6.5009 C   0  0  0  0  0  0  0  0  0  0  0  0 
    4.6964    2.0574    2.9117 C   0  0  0  0  0  0  0  0  0  0  0  0 
    6.6416   -1.1153   -6.6480 C   0  0  0  0  0  0  0  0  0  0  0  0 
    5.5758    0.8444    2.5917 C   0  0  0  0  0  0  0  0  0  0  0  0 
    5.5745   -1.2972   -5.5559 C   0  0  0  0  0  0  0  0  0  0  0  0 
    4.8380   -0.2514    1.8110 C   0  0  0  0  0  0  0  0  0  0  0  0 
    6.1316   -1.5288   -4.1441 C   0  0  0  0  0  0  0  0  0  0  0  0 
    5.7188   -1.4675    1.4933 C   0  0  0  0  0  0  0  0  0  0  0  0 
    5.0397   -1.7972   -3.1001 C   0  0  0  0  0  0  0  0  0  0  0  0 
    4.9938   -2.6159    0.7676 C   0  0  0  0  0  0  0  0  0  0  0  0 
    5.5841   -2.0272   -1.6839 C   0  0  0  0  0  0  0  0  0  0  0  0 
    4.4829   -2.3045   -0.6509 C   0  0  0  0  0  0  0  0  0  0  0  0 
    8.1954    0.2537   -7.3362 H   0  0  0  0  0  0  0  0  0  0  0  0 
    8.0816    0.1444   -5.5767 H   0  0  0  0  0  0  0  0  0  0  0  0 
    6.8628    1.0502   -6.4854 H   0  0  0  0  0  0  0  0  0  0  0  0 
    5.2525    2.8198    3.4694 H   0  0  0  0  0  0  0  0  0  0  0  0 
    3.8281    1.7695    3.5173 H   0  0  0  0  0  0  0  0  0  0  0  0 
    4.3180    2.5260    1.9947 H   0  0  0  0  0  0  0  0  0  0  0  0 
    7.2983   -1.9972   -6.6605 H   0  0  0  0  0  0  0  0  0  0  0  0 
    6.1423   -1.0959   -7.6262 H   0  0  0  0  0  0  0  0  0  0  0  0 
    5.9692    0.4200    3.5266 H   0  0  0  0  0  0  0  0  0  0  0  0 
    6.4532    1.1708    2.0150 H   0  0  0  0  0  0  0  0  0  0  0  0 
    4.9361   -2.1507   -5.8264 H   0  0  0  0  0  0  0  0  0  0  0  0 
    4.9142   -0.4168   -5.5455 H   0  0  0  0  0  0  0  0  0  0  0  0 
    4.4424    0.1803    0.8809 H   0  0  0  0  0  0  0  0  0  0  0  0 
    3.9606   -0.5796    2.3892 H   0  0  0  0  0  0  0  0  0  0  0  0 
    6.7238   -0.6596   -3.8266 H   0  0  0  0  0  0  0  0  0  0  0  0 
    6.8288   -2.3804   -4.1667 H   0  0  0  0  0  0  0  0  0  0  0  0 
    6.1287   -1.8604    2.4349 H   0  0  0  0  0  0  0  0  0  0  0  0 
    6.5869   -1.1410    0.9034 H   0  0  0  0  0  0  0  0  0  0  0  0 
    4.4505   -2.6733   -3.4094 H   0  0  0  0  0  0  0  0  0  0  0  0 
    4.3365   -0.9507   -3.0845 H   0  0  0  0  0  0  0  0  0  0  0  0 
    4.1424   -2.9375    1.3844 H   0  0  0  0  0  0  0  0  0  0  0  0 
    5.6717   -3.4801    0.7138 H   0  0  0  0  0  0  0  0  0  0  0  0 
    6.1716   -1.1496   -1.3803 H   0  0  0  0  0  0  0  0  0  0  0  0 
    6.2884   -2.8731   -1.6982 H   0  0  0  0  0  0  0  0  0  0  0  0 
    3.7915   -1.4507   -0.6207 H   0  0  0  0  0  0  0  0  0  0  0  0 
    3.8850   -3.1596   -0.9968 H   0  0  0  0  0  0  0  0  0  0  0  0 
  1 15  1  0  0  0  0 
  1 14  1  0  0  0  0 
  2 16  1  0  0  0  0 
  2 17  1  0  0  0  0 
  3  1  1  0  0  0  0 
  3  5  1  0  0  0  0 
  4  2  1  0  0  0  0 
  4 21  1  0  0  0  0 
  5 24  1  0  0  0  0 
  5  7  1  0  0  0  0 
  6 26  1  0  0  0  0 
  6  4  1  0  0  0  0 
  7 27  1  0  0  0  0 
  7  9  1  0  0  0  0 
  8  6  1  0  0  0  0 
  8 29  1  0  0  0  0 
  9 32  1  0  0  0  0 
  9 11  1  0  0  0  0 
 10 33  1  0  0  0  0 
 10  8  1  0  0  0  0 
 11 35  1  0  0  0  0 
 11 12  1  0  0  0  0 
 12 37  1  0  0  0  0 
 12 10  1  0  0  0  0 
 13  1  1  0  0  0  0 
 18  2  1  0  0  0  0 
 19  3  1  0  0  0  0 
 20  3  1  0  0  0  0 
 22  4  1  0  0  0  0 
 23  5  1  0  0  0  0 
 25  6  1  0  0  0  0 
 28  7  1  0  0  0  0 
 30  8  1  0  0  0  0 
 31  9  1  0  0  0  0 
 34 10  1  0  0  0  0 
 36 11  1  0  0  0  0 
 38 12  1  0  0  0  0 
M  END 
>  <HBA> 
0 
 
>  <HBD> 
0 
 
>  <TPSA> 
0.0 
 
>  <cid> 
8182 
 
>  <dipole> 
0.06 
 
>  <excitation_energy_1> 
7.592 
 
>  <excitation_energy_2> 
7.747 
 
>  <excitation_energy_3> 
7.771 
 
>  <excitation_energy_4> 
7.81 
 
>  <homo_energy> 
-7.959 
 
>  <homo_lumo_gap> 
10.223 
 
>  <logP> 
4.927 
 
>  <lumo_energy> 
2.264 
 
>  <melting_point> 
-30.55 
 
>  <molecular_refractivity> 
59.8 
 
>  <oscillator_strength_1> 
0.0068 
 
>  <oscillator_strength_2> 
0.0063 
 
>  <oscillator_strength_3> 
0.0056 
 
>  <oscillator_strength_4> 
0.001 
 
>  <open_babel_can_smiles> 
CCCCCCCCCCCC 
 
>  <mulliken_charges> 
38 
1   -0.442977 
2   -0.441666 
3   -0.247973 
4   -0.246407 
5   -0.248448 
6   -0.246842 
7   -0.252943 
8   -0.256207 
9   -0.252363 
10   -0.257624 
11   -0.253767 
12   -0.256131 
13   0.141114 
14   0.146018 
15   0.139829 
16   0.140911 
17   0.140952 
18   0.140561 
19   0.128755 
20   0.129516 
21   0.129509 
22   0.129307 
23   0.126186 
24   0.125124 
25   0.130556 
26   0.125112 
27   0.130717 
28   0.125111 
29   0.126378 
30   0.13105 
31   0.125992 
32   0.126186 
33   0.125494 
34   0.12543 
35   0.13062 
36   0.125378 
37   0.131084 
38   0.126462 
 
>  <lowdin_charges> 
38 
1   -0.448112 
2   -0.446718 
3   -0.272877 
4   -0.272591 
5   -0.276501 
6   -0.27792 
7   -0.277667 
8   -0.278914 
9   -0.274363 
10   -0.277369 
11   -0.277722 
12   -0.279221 
13   0.149721 
14   0.147143 
15   0.145612 
16   0.149955 
17   0.146511 
18   0.146184 
19   0.138472 
20   0.140651 
21   0.138521 
22   0.138863 
23   0.140032 
24   0.136949 
25   0.138286 
26   0.137075 
27   0.13932 
28   0.13698 
29   0.140363 
30   0.138863 
31   0.137307 
32   0.137544 
33   0.14031 
34   0.139794 
35   0.138666 
36   0.137129 
37   0.138758 
38   0.140966 
 
$$$$ 
 
