PCCDB-ID:  11396 
public computational chemistry database (PCCDB) project, http://pccdb.org 
 
 24 25  0  0  0  0  0  0  0  0999 V2000 
    0.8489   -0.1113    0.0367 C   0  0  0  0  0  0  0  0  0  0  0  0 
    7.4428    3.5169   -0.2385 C   0  0  0  0  0  0  0  0  0  0  0  0 
    3.0625   -1.3674   -0.0421 C   0  0  0  0  0  0  0  0  0  0  0  0 
    7.3173    0.9815   -0.2162 C   0  0  0  0  0  0  0  0  0  0  0  0 
    4.4383   -1.4068   -0.0944 C   0  0  0  0  0  0  0  0  0  0  0  0 
    6.6200   -0.2018   -0.1827 C   0  0  0  0  0  0  0  0  0  0  0  0 
    3.0900    1.0409   -0.0594 C   0  0  0  0  0  0  0  0  0  0  0  0 
    5.2653    2.2447   -0.1491 C   0  0  0  0  0  0  0  0  0  0  0  0 
    2.3604   -0.1331   -0.0235 C   0  0  0  0  0  0  0  0  0  0  0  0 
    6.6432    2.2367   -0.2001 C   0  0  0  0  0  0  0  0  0  0  0  0 
    5.1995   -0.2113   -0.1294 C   0  0  0  0  0  0  0  0  0  0  0  0 
    4.5072    1.0415   -0.1123 C   0  0  0  0  0  0  0  0  0  0  0  0 
    0.4347   -1.1244    0.0358 H   0  0  0  0  0  0  0  0  0  0  0  0 
    0.4205    0.4238   -0.8196 H   0  0  0  0  0  0  0  0  0  0  0  0 
    0.4906    0.3929    0.9429 H   0  0  0  0  0  0  0  0  0  0  0  0 
    8.0614    3.5742   -1.1435 H   0  0  0  0  0  0  0  0  0  0  0  0 
    8.1249    3.5874    0.6186 H   0  0  0  0  0  0  0  0  0  0  0  0 
    6.7919    4.3965   -0.2218 H   0  0  0  0  0  0  0  0  0  0  0  0 
    2.4962   -2.2955   -0.0138 H   0  0  0  0  0  0  0  0  0  0  0  0 
    8.4044    0.9683   -0.2573 H   0  0  0  0  0  0  0  0  0  0  0  0 
    4.9585   -2.3621   -0.1079 H   0  0  0  0  0  0  0  0  0  0  0  0 
    7.1502   -1.1516   -0.1959 H   0  0  0  0  0  0  0  0  0  0  0  0 
    2.5725    1.9991   -0.0459 H   0  0  0  0  0  0  0  0  0  0  0  0 
    4.7307    3.1928   -0.1377 H   0  0  0  0  0  0  0  0  0  0  0  0 
  1 15  1  0  0  0  0 
  2 18  1  0  0  0  0 
  2 10  1  0  0  0  0 
  2 17  1  0  0  0  0 
  3  9  1  0  0  0  0 
  3 19  1  0  0  0  0 
  4 10  2  0  0  0  0 
  4  6  1  0  0  0  0 
  5  3  2  0  0  0  0 
  6 11  2  0  0  0  0 
  7 23  1  0  0  0  0 
  7  9  2  0  0  0  0 
  8 24  1  0  0  0  0 
  8 12  2  0  0  0  0 
  9  1  1  0  0  0  0 
 10  8  1  0  0  0  0 
 11 12  1  0  0  0  0 
 11  5  1  0  0  0  0 
 12  7  1  0  0  0  0 
 13  1  1  0  0  0  0 
 14  1  1  0  0  0  0 
 16  2  1  0  0  0  0 
 20  4  1  0  0  0  0 
 21  5  1  0  0  0  0 
 22  6  1  0  0  0  0 
M  END 
>  <HBA> 
0 
 
>  <HBD> 
0 
 
>  <TPSA> 
0.0 
 
>  <cid> 
11396 
 
>  <dipole> 
0.24 
 
>  <excitation_energy_1> 
4.289 
 
>  <excitation_energy_2> 
4.343 
 
>  <excitation_energy_3> 
5.373 
 
>  <excitation_energy_4> 
5.38 
 
>  <homo_energy> 
-5.589 
 
>  <homo_lumo_gap> 
4.751 
 
>  <logP> 
3.457 
 
>  <lumo_energy> 
-0.838 
 
>  <melting_point> 
57.33 
 
>  <molecular_refractivity> 
53.88 
 
>  <oscillator_strength_1> 
0.045 
 
>  <oscillator_strength_2> 
0.003 
 
>  <oscillator_strength_3> 
0.0 
 
>  <oscillator_strength_4> 
0.0013 
 
>  <open_babel_can_smiles> 
Cc1ccc2c(c1)cc(cc2)C 
 
>  <mulliken_charges> 
24 
1   -0.531426 
2   -0.532019 
3   -0.185926 
4   -0.181122 
5   -0.19181 
6   -0.19128 
7   -0.256685 
8   -0.262774 
9   0.1759 
10   0.180984 
11   0.132949 
12   0.153796 
13   0.153813 
14   0.163079 
15   0.163578 
16   0.160827 
17   0.160898 
18   0.155369 
19   0.120416 
20   0.120674 
21   0.126539 
22   0.127055 
23   0.118266 
24   0.118898 
 
>  <lowdin_charges> 
24 
1   -0.443602 
2   -0.441771 
3   -0.170885 
4   -0.165796 
5   -0.156275 
6   -0.154823 
7   -0.170494 
8   -0.174196 
9   4.1e-05 
10   -0.000787 
11   -0.006641 
12   0.003776 
13   0.155257 
14   0.161903 
15   0.161729 
16   0.159859 
17   0.160107 
18   0.157087 
19   0.15472 
20   0.152597 
21   0.156323 
22   0.156338 
23   0.152659 
24   0.152875 
 
$$$$ 
 
