PCCDB-ID:  6822 
public computational chemistry database (PCCDB) project, http://pccdb.org 
 
 23 24  0  0  0  0  0  0  0  0999 V2000 
    1.1290    0.4626   -0.2777 C   0  0  0  0  0  0  0  0  0  0  0  0 
    7.1965    3.5256    2.2124 C   0  0  0  0  0  0  0  0  0  0  0  0 
    6.4687    2.3877    1.9741 C   0  0  0  0  0  0  0  0  0  0  0  0 
    6.6187    4.7835    1.8966 C   0  0  0  0  0  0  0  0  0  0  0  0 
    4.3665    1.3659    1.1357 C   0  0  0  0  0  0  0  0  0  0  0  0 
    2.6020    2.8052    0.3177 C   0  0  0  0  0  0  0  0  0  0  0  0 
    5.1573    2.4957    1.4337 C   0  0  0  0  0  0  0  0  0  0  0  0 
    3.1080    1.5092    0.5757 C   0  0  0  0  0  0  0  0  0  0  0  0 
    3.3529    3.9136    0.6425 C   0  0  0  0  0  0  0  0  0  0  0  0 
    4.6639    3.8212    1.1884 C   0  0  0  0  0  0  0  0  0  0  0  0 
    5.4080    4.9382    1.4057 N   0  0  0  0  0  0  0  0  0  0  0  0 
    2.7161    5.2213    0.4062 N   0  0  0  0  0  0  0  0  0  0  0  0 
    2.0632    5.3402   -0.6344 O   0  0  0  0  0  0  0  0  0  0  0  0 
    2.8376    6.0832    1.2672 O   0  0  0  0  0  0  0  0  0  0  0  0 
    2.4223    0.3664    0.3085 O   0  0  0  0  0  0  0  0  0  0  0  0 
    0.7856   -0.5654   -0.4016 H   0  0  0  0  0  0  0  0  0  0  0  0 
    1.1666    0.9532   -1.2584 H   0  0  0  0  0  0  0  0  0  0  0  0 
    0.4304    1.0016    0.3746 H   0  0  0  0  0  0  0  0  0  0  0  0 
    8.2011    3.4789    2.6215 H   0  0  0  0  0  0  0  0  0  0  0  0 
    6.8762    1.4018    2.1828 H   0  0  0  0  0  0  0  0  0  0  0  0 
    7.1932    5.6953    2.0545 H   0  0  0  0  0  0  0  0  0  0  0  0 
    4.7433    0.3666    1.3326 H   0  0  0  0  0  0  0  0  0  0  0  0 
    1.6284    2.9578   -0.1286 H   0  0  0  0  0  0  0  0  0  0  0  0 
  1 15  1  0  0  0  0 
  1 18  1  0  0  0  0 
  2 19  1  0  0  0  0 
  3 20  1  0  0  0  0 
  3  2  2  0  0  0  0 
  4 21  1  0  0  0  0 
  4  2  1  0  0  0  0 
  5 22  1  0  0  0  0 
  5  7  2  0  0  0  0 
  6  8  2  0  0  0  0 
  6  9  1  0  0  0  0 
  7  3  1  0  0  0  0 
  8  5  1  0  0  0  0 
  9 10  2  0  0  0  0 
 10 11  1  0  0  0  0 
 10  7  1  0  0  0  0 
 11  4  2  0  0  0  0 
 12  9  1  0  0  0  0 
 12 14  2  0  0  0  0 
 13 12  2  0  0  0  0 
 15  8  1  0  0  0  0 
 16  1  1  0  0  0  0 
 17  1  1  0  0  0  0 
 23  6  1  0  0  0  0 
M  END 
>  <HBA> 
2 
 
>  <HBD> 
0 
 
>  <TPSA> 
67.94 
 
>  <cid> 
6822 
 
>  <dipole> 
5.43 
 
>  <excitation_energy_1> 
3.423 
 
>  <excitation_energy_2> 
3.598 
 
>  <excitation_energy_3> 
3.834 
 
>  <excitation_energy_4> 
4.171 
 
>  <homo_energy> 
-6.373 
 
>  <homo_lumo_gap> 
4.063 
 
>  <logP> 
2.675 
 
>  <lumo_energy> 
-2.31 
 
>  <melting_point> 
109.06 
 
>  <molecular_refractivity> 
57.06 
 
>  <oscillator_strength_1> 
0.0891 
 
>  <oscillator_strength_2> 
0.0098 
 
>  <oscillator_strength_3> 
0.0177 
 
>  <oscillator_strength_4> 
0.012 
 
>  <open_babel_can_smiles> 
COc1cc2cccnc2c(c1)N(=O)=O 
 
>  <mulliken_charges> 
23 
1   -0.224506 
2   -0.151601 
3   -0.146892 
4   0.046539 
5   -0.242886 
6   -0.222298 
7   0.15584 
8   0.390121 
9   0.261018 
10   0.238107 
11   -0.483919 
12   0.350094 
13   -0.393148 
14   -0.35294 
15   -0.509489 
16   0.179905 
17   0.165089 
18   0.161452 
19   0.146712 
20   0.149851 
21   0.151676 
22   0.150965 
23   0.180311 
 
>  <lowdin_charges> 
23 
1   -0.277179 
2   -0.169356 
3   -0.126731 
4   -0.080641 
5   -0.172525 
6   -0.178324 
7   -0.003595 
8   0.102902 
9   0.020382 
10   0.032963 
11   -0.130126 
12   0.309264 
13   -0.255446 
14   -0.211751 
15   -0.191071 
16   0.168 
17   0.151747 
18   0.152113 
19   0.168202 
20   0.166775 
21   0.163055 
22   0.173303 
23   0.188038 
 
$$$$ 
 
