PCCDB-ID:  17823 
public computational chemistry database (PCCDB) project, http://pccdb.org 
 
 21 21  0  0  0  0  0  0  0  0999 V2000 
    2.5090   -0.8023   -0.1830 C   0  0  0  0  0  0  0  0  0  0  0  0 
    5.0129    2.4709    0.8279 C   0  0  0  0  0  0  0  0  0  0  0  0 
    4.2260    1.3678    0.4923 C   0  0  0  0  0  0  0  0  0  0  0  0 
    3.1094    3.9215    0.4717 C   0  0  0  0  0  0  0  0  0  0  0  0 
    4.4643    3.7537    0.8085 C   0  0  0  0  0  0  0  0  0  0  0  0 
    2.3033    2.8319    0.1419 C   0  0  0  0  0  0  0  0  0  0  0  0 
    2.8860    1.5389    0.1498 C   0  0  0  0  0  0  0  0  0  0  0  0 
    5.3507    4.9005    1.1723 C   0  0  0  0  0  0  0  0  0  0  0  0 
    0.9703    2.9718   -0.2364 N   0  0  0  0  0  0  0  0  0  0  0  0 
    6.3620    4.7907    1.8258 O   0  0  0  0  0  0  0  0  0  0  0  0 
    4.9686    6.1321    0.7226 O   0  0  0  0  0  0  0  0  0  0  0  0 
    2.0206    0.5317   -0.1773 O   0  0  0  0  0  0  0  0  0  0  0  0 
    1.6643   -1.4295   -0.4725 H   0  0  0  0  0  0  0  0  0  0  0  0 
    2.8639   -1.1027    0.8111 H   0  0  0  0  0  0  0  0  0  0  0  0 
    3.3210   -0.9255   -0.9106 H   0  0  0  0  0  0  0  0  0  0  0  0 
    6.0540    2.3476    1.1038 H   0  0  0  0  0  0  0  0  0  0  0  0 
    4.6648    0.3766    0.5044 H   0  0  0  0  0  0  0  0  0  0  0  0 
    2.6445    4.9052    0.5082 H   0  0  0  0  0  0  0  0  0  0  0  0 
    0.4963    3.7788    0.1487 H   0  0  0  0  0  0  0  0  0  0  0  0 
    0.4273    2.1221   -0.1492 H   0  0  0  0  0  0  0  0  0  0  0  0 
    4.2566    6.0325    0.0700 H   0  0  0  0  0  0  0  0  0  0  0  0 
  1 12  1  0  0  0  0 
  1 14  1  0  0  0  0 
  2 16  1  0  0  0  0 
  3 17  1  0  0  0  0 
  3  2  2  0  0  0  0 
  4 18  1  0  0  0  0 
  4  5  2  0  0  0  0 
  5  2  1  0  0  0  0 
  5  8  1  0  0  0  0 
  6  7  2  0  0  0  0 
  6  4  1  0  0  0  0 
  7  3  1  0  0  0  0 
  8 10  2  0  0  0  0 
  9 20  1  0  0  0  0 
  9  6  1  0  0  0  0 
  9 19  1  0  0  0  0 
 11  8  1  0  0  0  0 
 12  7  1  0  0  0  0 
 13  1  1  0  0  0  0 
 15  1  1  0  0  0  0 
 21 11  1  0  0  0  0 
M  END 
>  <HBA> 
4 
 
>  <HBD> 
2 
 
>  <TPSA> 
72.55 
 
>  <cid> 
17823 
 
>  <dipole> 
6.32 
 
>  <excitation_energy_1> 
4.149 
 
>  <excitation_energy_2> 
4.784 
 
>  <excitation_energy_3> 
4.81 
 
>  <excitation_energy_4> 
4.922 
 
>  <homo_energy> 
-5.622 
 
>  <homo_lumo_gap> 
4.74 
 
>  <logP> 
1.557 
 
>  <lumo_energy> 
-0.882 
 
>  <melting_point> 
150.91 
 
>  <molecular_refractivity> 
44.3 
 
>  <oscillator_strength_1> 
0.1093 
 
>  <oscillator_strength_2> 
0.0107 
 
>  <oscillator_strength_3> 
0.0278 
 
>  <oscillator_strength_4> 
0.0262 
 
>  <open_babel_can_smiles> 
COc1ccc(cc1N)C(=O)O 
 
>  <mulliken_charges> 
21 
1   -0.218061 
2   -0.174386 
3   -0.204562 
4   -0.261313 
5   0.055662 
6   0.270598 
7   0.360172 
8   0.540304 
9   -0.792435 
10   -0.453658 
11   -0.579695 
12   -0.529897 
13   0.173374 
14   0.159727 
15   0.161424 
16   0.161229 
17   0.140513 
18   0.120431 
19   0.321727 
20   0.340287 
21   0.40856 
 
>  <lowdin_charges> 
21 
1   -0.275905 
2   -0.14563 
3   -0.200135 
4   -0.208903 
5   -0.064362 
6   0.043383 
7   0.080052 
8   0.191522 
9   -0.486252 
10   -0.246478 
11   -0.364573 
12   -0.204534 
13   0.165957 
14   0.149238 
15   0.151352 
16   0.176156 
17   0.166107 
18   0.152 
19   0.278754 
20   0.286105 
21   0.356146 
 
$$$$ 
 
