PCCDB-ID:  38883 
public computational chemistry database (PCCDB) project, http://pccdb.org 
 
 20 19  0  0  1  0  0  0  0  0999 V2000 
    0.4846    0.5190   -1.9250 C   0  0  0  0  0  0  0  0  0  0  0  0 
    1.4454    0.5390   -0.7315 C   0  0  0  0  0  0  0  0  0  0  0  0 
    2.8964    0.2386   -1.1274 C   0  0  0  0  0  0  0  0  0  0  0  0 
    3.8623    0.2635    0.0632 C   0  0  0  0  0  0  0  0  0  0  0  0 
    6.2348    0.0242    0.8483 C   0  0  0  0  0  0  0  0  0  0  0  0 
    5.3051   -0.0947   -0.3426 C   0  0  1  0  0  0  0  0  0  0  0  0 
    6.9101   -0.9109    1.2288 O   0  0  0  0  0  0  0  0  0  0  0  0 
    5.3822   -1.3881   -0.8901 O   0  0  0  0  0  0  0  0  0  0  0  0 
   -0.5444    0.7305   -1.6133 H   0  0  0  0  0  0  0  0  0  0  0  0 
    0.4897   -0.4598   -2.4196 H   0  0  0  0  0  0  0  0  0  0  0  0 
    0.7673    1.2691   -2.6738 H   0  0  0  0  0  0  0  0  0  0  0  0 
    1.1153   -0.1957    0.0165 H   0  0  0  0  0  0  0  0  0  0  0  0 
    1.3955    1.5200   -0.2372 H   0  0  0  0  0  0  0  0  0  0  0  0 
    3.2300    0.9703   -1.8784 H   0  0  0  0  0  0  0  0  0  0  0  0 
    2.9553   -0.7463   -1.6061 H   0  0  0  0  0  0  0  0  0  0  0  0 
    3.5323   -0.4541    0.8264 H   0  0  0  0  0  0  0  0  0  0  0  0 
    3.8565    1.2598    0.5297 H   0  0  0  0  0  0  0  0  0  0  0  0 
    6.2650    1.0065    1.3621 H   0  0  0  0  0  0  0  0  0  0  0  0 
    5.6483    0.6516   -1.0848 H   0  0  0  0  0  0  0  0  0  0  0  0 
    6.0343   -1.8668   -0.3415 H   0  0  0  0  0  0  0  0  0  0  0  0 
  1  9  1  0  0  0  0 
  1  2  1  0  0  0  0 
  2 13  1  0  0  0  0 
  2 12  1  0  0  0  0 
  3  2  1  0  0  0  0 
  3  4  1  0  0  0  0 
  4 17  1  0  0  0  0 
  4 16  1  0  0  0  0 
  5  7  2  0  0  0  0 
  5 18  1  0  0  0  0 
  6 19  1  6  0  0  0 
  6  4  1  0  0  0  0 
  6  5  1  0  0  0  0 
  8  6  1  0  0  0  0 
  8 20  1  0  0  0  0 
 10  1  1  0  0  0  0 
 11  1  1  0  0  0  0 
 14  3  1  0  0  0  0 
 15  3  1  0  0  0  0 
M  END 
>  <HBA> 
2 
 
>  <HBD> 
1 
 
>  <TPSA> 
37.3 
 
>  <cid> 
38883 
 
>  <dipole> 
2.3 
 
>  <excitation_energy_1> 
4.467 
 
>  <excitation_energy_2> 
5.341 
 
>  <excitation_energy_3> 
6.783 
 
>  <excitation_energy_4> 
6.959 
 
>  <homo_energy> 
-7.404 
 
>  <homo_lumo_gap> 
6.313 
 
>  <logP> 
0.736 
 
>  <lumo_energy> 
-1.091 
 
>  <melting_point> 
23.78 
 
>  <molecular_refractivity> 
32.32 
 
>  <oscillator_strength_1> 
0.0009 
 
>  <oscillator_strength_2> 
0.0338 
 
>  <oscillator_strength_3> 
0.0132 
 
>  <oscillator_strength_4> 
0.0406 
 
>  <open_babel_can_smiles> 
CCCC[C@@H](C=O)O 
 
>  <mulliken_charges> 
20 
1   -0.441891 
2   -0.249897 
3   -0.249536 
4   -0.273605 
5   0.230153 
6   0.087495 
7   -0.398959 
8   -0.637446 
9   0.14314 
10   0.146088 
11   0.142085 
12   0.134062 
13   0.128208 
14   0.127181 
15   0.163381 
16   0.146807 
17   0.128208 
18   0.125219 
19   0.141189 
20   0.408118 
 
>  <lowdin_charges> 
20 
1   -0.443324 
2   -0.272485 
3   -0.275045 
4   -0.28172 
5   0.047382 
6   -0.035926 
7   -0.219926 
8   -0.45946 
9   0.149188 
10   0.148521 
11   0.147556 
12   0.141663 
13   0.136904 
14   0.139364 
15   0.155642 
16   0.150601 
17   0.141723 
18   0.131848 
19   0.14834 
20   0.349153 
 
$$$$ 
 
