PCCDB-ID:  66743 
public computational chemistry database (PCCDB) project, http://pccdb.org 
 
 24 24  0  0  0  0  0  0  0  0999 V2000 
    1.7894   -1.2571    0.3308 C   0  0  0  0  0  0  0  0  0  0  0  0 
    8.9866    3.1420   -1.2757 C   0  0  0  0  0  0  0  0  0  0  0  0 
    2.7184   -0.8556    1.4671 C   0  0  0  0  0  0  0  0  0  0  0  0 
    6.7054    2.6716   -0.2714 C   0  0  0  0  0  0  0  0  0  0  0  0 
    8.0692    0.8056   -0.9444 C   0  0  0  0  0  0  0  0  0  0  0  0 
    5.7095    1.7969    0.1587 C   0  0  0  0  0  0  0  0  0  0  0  0 
    7.0819   -0.0747   -0.5187 C   0  0  0  0  0  0  0  0  0  0  0  0 
    7.8999    2.1945   -0.8263 C   0  0  0  0  0  0  0  0  0  0  0  0 
    5.8915    0.4137    0.0390 C   0  0  0  0  0  0  0  0  0  0  0  0 
    4.8686   -0.5738    0.4804 C   0  0  0  0  0  0  0  0  0  0  0  0 
    4.9975   -1.7805    0.3884 O   0  0  0  0  0  0  0  0  0  0  0  0 
    3.7708    0.0220    1.0055 O   0  0  0  0  0  0  0  0  0  0  0  0 
    0.9639   -1.8630    0.7221 H   0  0  0  0  0  0  0  0  0  0  0  0 
    2.3282   -1.8499   -0.4134 H   0  0  0  0  0  0  0  0  0  0  0  0 
    1.3662   -0.3733   -0.1579 H   0  0  0  0  0  0  0  0  0  0  0  0 
    8.6403    4.1801   -1.2745 H   0  0  0  0  0  0  0  0  0  0  0  0 
    9.3329    2.9012   -2.2876 H   0  0  0  0  0  0  0  0  0  0  0  0 
    9.8612    3.0826   -0.6149 H   0  0  0  0  0  0  0  0  0  0  0  0 
    3.1718   -1.7328    1.9348 H   0  0  0  0  0  0  0  0  0  0  0  0 
    2.1930   -0.2705    2.2263 H   0  0  0  0  0  0  0  0  0  0  0  0 
    6.5531    3.7440   -0.1752 H   0  0  0  0  0  0  0  0  0  0  0  0 
    8.9872    0.4140   -1.3771 H   0  0  0  0  0  0  0  0  0  0  0  0 
    4.7898    2.1817    0.5849 H   0  0  0  0  0  0  0  0  0  0  0  0 
    7.2110   -1.1482   -0.6099 H   0  0  0  0  0  0  0  0  0  0  0  0 
  1 13  1  0  0  0  0 
  1  3  1  0  0  0  0 
  2 16  1  0  0  0  0 
  2  8  1  0  0  0  0 
  2 18  1  0  0  0  0 
  3 19  1  0  0  0  0 
  3 20  1  0  0  0  0 
  4 21  1  0  0  0  0 
  4  6  2  0  0  0  0 
  5  8  2  0  0  0  0 
  5  7  1  0  0  0  0 
  6 23  1  0  0  0  0 
  7  9  2  0  0  0  0 
  8  4  1  0  0  0  0 
  9  6  1  0  0  0  0 
  9 10  1  0  0  0  0 
 10 12  1  0  0  0  0 
 11 10  2  0  0  0  0 
 12  3  1  0  0  0  0 
 14  1  1  0  0  0  0 
 15  1  1  0  0  0  0 
 17  2  1  0  0  0  0 
 22  5  1  0  0  0  0 
 24  7  1  0  0  0  0 
M  END 
>  <HBA> 
2 
 
>  <HBD> 
0 
 
>  <TPSA> 
26.3 
 
>  <cid> 
66743 
 
>  <dipole> 
2.04 
 
>  <excitation_energy_1> 
4.891 
 
>  <excitation_energy_2> 
4.9 
 
>  <excitation_energy_3> 
5.204 
 
>  <excitation_energy_4> 
6.14 
 
>  <homo_energy> 
-6.71 
 
>  <homo_lumo_gap> 
5.638 
 
>  <logP> 
2.172 
 
>  <lumo_energy> 
-1.072 
 
>  <melting_point> 
33.44 
 
>  <molecular_refractivity> 
47.49 
 
>  <oscillator_strength_1> 
0.0045 
 
>  <oscillator_strength_2> 
0.0092 
 
>  <oscillator_strength_3> 
0.3573 
 
>  <oscillator_strength_4> 
0.0793 
 
>  <open_babel_can_smiles> 
CCOC(=O)c1ccc(cc1)C 
 
>  <mulliken_charges> 
24 
1   -0.461713 
2   -0.531953 
3   -0.040948 
4   -0.189608 
5   -0.186179 
6   -0.157383 
7   -0.152271 
8   0.187044 
9   0.048309 
10   0.593351 
11   -0.496985 
12   -0.479032 
13   0.148807 
14   0.178232 
15   0.1558 
16   0.158358 
17   0.165151 
18   0.169443 
19   0.170452 
20   0.150359 
21   0.127266 
22   0.128717 
23   0.153709 
24   0.161073 
 
>  <lowdin_charges> 
24 
1   -0.457867 
2   -0.441134 
3   -0.129612 
4   -0.168465 
5   -0.166528 
6   -0.137321 
7   -0.126896 
8   0.016637 
9   -0.051238 
10   0.195261 
11   -0.276749 
12   -0.194679 
13   0.158953 
14   0.16766 
15   0.156045 
16   0.157472 
17   0.162238 
18   0.165278 
19   0.159795 
20   0.152555 
21   0.155006 
22   0.157915 
23   0.171465 
24   0.174209 
 
$$$$ 
 
