PCCDB-ID:  58094 
public computational chemistry database (PCCDB) project, http://pccdb.org 
 
 23 23  0  0  1  0  0  0  0  0999 V2000 
    1.5069    1.4662    0.4056 C   0  0  0  0  0  0  0  0  0  0  0  0 
    2.8324    1.5658    1.1581 C   0  0  0  0  0  0  0  0  0  0  0  0 
    6.5494    1.2546   -1.0252 C   0  0  0  0  0  0  0  0  0  0  0  0 
    6.4862   -0.1037   -1.1406 C   0  0  0  0  0  0  0  0  0  0  0  0 
    6.4682    2.0099    0.2010 C   0  0  0  0  0  0  0  0  0  0  0  0 
    6.3231   -1.0508   -0.0632 C   0  0  0  0  0  0  0  0  0  0  0  0 
    5.8851    1.6239    1.3613 C   0  0  0  0  0  0  0  0  0  0  0  0 
    5.7580   -0.8333    1.1474 C   0  0  0  0  0  0  0  0  0  0  0  0 
    4.9891    0.4092    1.5308 C   0  0  2  0  0  0  0  0  0  0  0  0 
    3.7039    0.4419    0.8113 N   0  0  0  0  0  0  0  0  0  0  0  0 
    0.8308    2.2783    0.6962 H   0  0  0  0  0  0  0  0  0  0  0  0 
    1.0169    0.5093    0.6130 H   0  0  0  0  0  0  0  0  0  0  0  0 
    1.6630    1.5371   -0.6785 H   0  0  0  0  0  0  0  0  0  0  0  0 
    2.6458    1.5170    2.2403 H   0  0  0  0  0  0  0  0  0  0  0  0 
    3.2922    2.5513    0.9638 H   0  0  0  0  0  0  0  0  0  0  0  0 
    6.7963    1.8195   -1.9229 H   0  0  0  0  0  0  0  0  0  0  0  0 
    6.6853   -0.5291   -2.1231 H   0  0  0  0  0  0  0  0  0  0  0  0 
    6.9602    2.9827    0.1849 H   0  0  0  0  0  0  0  0  0  0  0  0 
    6.7184   -2.0481   -0.2560 H   0  0  0  0  0  0  0  0  0  0  0  0 
    6.0123    2.2678    2.2310 H   0  0  0  0  0  0  0  0  0  0  0  0 
    5.7975   -1.6330    1.8842 H   0  0  0  0  0  0  0  0  0  0  0  0 
    4.7304    0.3355    2.5942 H   0  0  0  0  0  0  0  0  0  0  0  0 
    3.8942    0.4582   -0.1901 H   0  0  0  0  0  0  0  0  0  0  0  0 
  1 12  1  0  0  0  0 
  1 11  1  0  0  0  0 
  1  2  1  0  0  0  0 
  2 14  1  0  0  0  0 
  3  5  1  0  0  0  0 
  4  3  2  0  0  0  0 
  4  6  1  0  0  0  0 
  5  7  2  0  0  0  0 
  6  8  2  0  0  0  0 
  7  9  1  0  0  0  0 
  7 20  1  0  0  0  0 
  8  9  1  0  0  0  0 
  8 21  1  0  0  0  0 
  9 22  1  1  0  0  0 
 10  2  1  0  0  0  0 
 10  9  1  0  0  0  0 
 13  1  1  0  0  0  0 
 15  2  1  0  0  0  0 
 16  3  1  0  0  0  0 
 17  4  1  0  0  0  0 
 18  5  1  0  0  0  0 
 19  6  1  0  0  0  0 
 23 10  1  0  0  0  0 
M  END 
>  <HBA> 
1 
 
>  <HBD> 
1 
 
>  <TPSA> 
12.03 
 
>  <cid> 
58094 
 
>  <dipole> 
0.86 
 
>  <excitation_energy_1> 
3.857 
 
>  <excitation_energy_2> 
4.489 
 
>  <excitation_energy_3> 
4.925 
 
>  <excitation_energy_4> 
5.111 
 
>  <homo_energy> 
-5.766 
 
>  <homo_lumo_gap> 
4.781 
 
>  <logP> 
2.038 
 
>  <lumo_energy> 
-0.985 
 
>  <melting_point> 
50.57 
 
>  <molecular_refractivity> 
44.64 
 
>  <oscillator_strength_1> 
0.0124 
 
>  <oscillator_strength_2> 
0.1073 
 
>  <oscillator_strength_3> 
0.0007 
 
>  <oscillator_strength_4> 
0.008 
 
>  <open_babel_can_smiles> 
CCN[C@@H]1C=CC=CC=C1 
 
>  <mulliken_charges> 
23 
1   -0.447239 
2   -0.109815 
3   -0.143351 
4   -0.149187 
5   -0.111966 
6   -0.106811 
7   -0.136913 
8   -0.127235 
9   -0.028848 
10   -0.540587 
11   0.140116 
12   0.157029 
13   0.139002 
14   0.130909 
15   0.118643 
16   0.128649 
17   0.129788 
18   0.130184 
19   0.131181 
20   0.131584 
21   0.137249 
22   0.12822 
23   0.299397 
 
>  <lowdin_charges> 
23 
1   -0.446034 
2   -0.197519 
3   -0.169489 
4   -0.167952 
5   -0.167718 
6   -0.16668 
7   -0.168305 
8   -0.143855 
9   -0.066473 
10   -0.354569 
11   0.151089 
12   0.154874 
13   0.143537 
14   0.13484 
15   0.119569 
16   0.157399 
17   0.157084 
18   0.157417 
19   0.158673 
20   0.15513 
21   0.15989 
22   0.144614 
23   0.254477 
 
$$$$ 
 
