PCCDB-ID:  8646 
public computational chemistry database (PCCDB) project, http://pccdb.org 
 
 15 16  0  0  0  0  0  0  0  0999 V2000 
   -0.3000   -0.6577   -0.0162 C   0  0  0  0  0  0  0  0  0  0  0  0 
   -0.2782    0.7262   -0.0571 C   0  0  0  0  0  0  0  0  0  0  0  0 
    0.9679   -1.3365    0.0153 C   0  0  0  0  0  0  0  0  0  0  0  0 
    2.1451    0.6932   -0.0367 C   0  0  0  0  0  0  0  0  0  0  0  0 
    3.2733    1.2938   -0.0486 N   0  0  0  0  0  0  0  0  0  0  0  0 
    0.8855    1.4170   -0.0668 N   0  0  0  0  0  0  0  0  0  0  0  0 
    2.0873   -0.6918    0.0056 N   0  0  0  0  0  0  0  0  0  0  0  0 
   -1.5933   -1.0887   -0.0141 N   0  0  0  0  0  0  0  0  0  0  0  0 
   -1.5801    1.0726   -0.0770 N   0  0  0  0  0  0  0  0  0  0  0  0 
   -2.3839   -0.0671   -0.0502 N   0  0  0  0  0  0  0  0  0  0  0  0 
    1.0005   -2.6785    0.0554 O   0  0  0  0  0  0  0  0  0  0  0  0 
    3.1615    2.3100   -0.0822 H   0  0  0  0  0  0  0  0  0  0  0  0 
    0.9116    2.4270   -0.0975 H   0  0  0  0  0  0  0  0  0  0  0  0 
   -2.0211    1.9809   -0.1072 H   0  0  0  0  0  0  0  0  0  0  0  0 
    0.0844   -3.0091    0.0574 H   0  0  0  0  0  0  0  0  0  0  0  0 
  1  8  1  0  0  0  0 
  1  3  1  0  0  0  0 
  2  1  2  0  0  0  0 
  3 11  1  0  0  0  0 
  4  7  2  0  0  0  0 
  5  4  1  0  0  0  0 
  6  2  1  0  0  0  0 
  6  4  1  0  0  0  0 
  7  3  2  0  0  0  0 
  9  2  1  0  0  0  0 
  9 10  1  0  0  0  0 
 10  8  2  0  0  0  0 
 11 15  1  0  0  0  0 
 12  5  1  0  0  0  0 
 13  6  1  0  0  0  0 
 14  9  1  0  0  0  0 
M  RAD  1   5   2 
M  END 
>  <HBA> 
5 
 
>  <HBD> 
3 
 
>  <TPSA> 
113.34 
 
>  <cid> 
8646 
 
>  <dipole> 
6.42 
 
>  <excitation_energy_1> 
4.347 
 
>  <excitation_energy_2> 
4.649 
 
>  <excitation_energy_3> 
5.01 
 
>  <excitation_energy_4> 
5.043 
 
>  <homo_energy> 
-6.172 
 
>  <homo_lumo_gap> 
4.865 
 
>  <logP> 
-0.795 
 
>  <lumo_energy> 
-1.306 
 
>  <melting_point> 
274.32 
 
>  <molecular_refractivity> 
36.71 
 
>  <oscillator_strength_1> 
0.1557 
 
>  <oscillator_strength_2> 
0.0003 
 
>  <oscillator_strength_3> 
0.0004 
 
>  <oscillator_strength_4> 
0.1075 
 
>  <open_babel_can_smiles> 
[NH]C1=[N]=C(O)c2c(N1)[nH]nn2 
 
>  <mulliken_charges> 
15 
1   0.158811 
2   0.708196 
3   0.557635 
4   0.603796 
5   -0.59993 
6   -0.759497 
7   -0.499892 
8   -0.376881 
9   -0.558758 
10   -0.03707 
11   -0.582189 
12   0.263089 
13   0.3323 
14   0.354513 
15   0.435878 
 
>  <lowdin_charges> 
15 
1   -0.11376 
2   0.08903 
3   0.160719 
4   0.13604 
5   -0.401862 
6   -0.249454 
7   -0.177597 
8   -0.110127 
9   -0.150445 
10   -0.078859 
11   -0.319175 
12   0.241816 
13   0.292918 
14   0.307539 
15   0.373217 
 
$$$$ 
 
