PCCDB-ID:  30884 
public computational chemistry database (PCCDB) project, http://pccdb.org 
 
 24 25  0  0  0  0  0  0  0  0999 V2000 
    1.1127   -0.0609   -0.1735 C   0  0  0  0  0  0  0  0  0  0  0  0 
    6.5390    0.1289    0.9896 C   0  0  0  0  0  0  0  0  0  0  0  0 
    7.2507    1.3157    1.1258 C   0  0  0  0  0  0  0  0  0  0  0  0 
    5.1713    2.5578    0.8526 C   0  0  0  0  0  0  0  0  0  0  0  0 
    2.9669    1.3613    0.4921 C   0  0  0  0  0  0  0  0  0  0  0  0 
    4.3663   -1.1446    0.6400 C   0  0  0  0  0  0  0  0  0  0  0  0 
    5.1537    0.1405    0.7901 C   0  0  0  0  0  0  0  0  0  0  0  0 
    4.4665    1.3629    0.7132 C   0  0  0  0  0  0  0  0  0  0  0  0 
    6.5477    2.5176    1.0579 C   0  0  0  0  0  0  0  0  0  0  0  0 
    2.5584    0.0843   -0.0947 N   0  0  0  0  0  0  0  0  0  0  0  0 
    7.2817    3.7831    1.2029 N   0  0  0  0  0  0  0  0  0  0  0  0 
    8.4983    3.7217    1.3812 O   0  0  0  0  0  0  0  0  0  0  0  0 
    6.6375    4.8306    1.1384 O   0  0  0  0  0  0  0  0  0  0  0  0 
    2.9840   -0.9284    0.8642 O   0  0  0  0  0  0  0  0  0  0  0  0 
    0.7333    0.6961   -0.8672 H   0  0  0  0  0  0  0  0  0  0  0  0 
    0.6187    0.0633    0.8039 H   0  0  0  0  0  0  0  0  0  0  0  0 
    0.8805   -1.0526   -0.5682 H   0  0  0  0  0  0  0  0  0  0  0  0 
    7.0666   -0.8203    1.0456 H   0  0  0  0  0  0  0  0  0  0  0  0 
    8.3214    1.3281    1.2860 H   0  0  0  0  0  0  0  0  0  0  0  0 
    4.6723    3.5190    0.7993 H   0  0  0  0  0  0  0  0  0  0  0  0 
    2.6879    2.1540   -0.2123 H   0  0  0  0  0  0  0  0  0  0  0  0 
    2.4418    1.5561    1.4449 H   0  0  0  0  0  0  0  0  0  0  0  0 
    4.6703   -1.8813    1.3919 H   0  0  0  0  0  0  0  0  0  0  0  0 
    4.5296   -1.5764   -0.3590 H   0  0  0  0  0  0  0  0  0  0  0  0 
  1 10  1  0  0  0  0 
  1 16  1  0  0  0  0 
  2 18  1  0  0  0  0 
  2  3  2  0  0  0  0 
  3 19  1  0  0  0  0 
  4  9  2  0  0  0  0 
  5  8  1  0  0  0  0 
  5 22  1  0  0  0  0 
  6  7  1  0  0  0  0 
  6 14  1  0  0  0  0 
  6 23  1  0  0  0  0 
  7  2  1  0  0  0  0 
  8  7  2  0  0  0  0 
  8  4  1  0  0  0  0 
  9  3  1  0  0  0  0 
  9 11  1  0  0  0  0 
 10  5  1  0  0  0  0 
 10 14  1  0  0  0  0 
 11 12  2  0  0  0  0 
 13 11  2  0  0  0  0 
 15  1  1  0  0  0  0 
 17  1  1  0  0  0  0 
 20  4  1  0  0  0  0 
 21  5  1  0  0  0  0 
 24  6  1  0  0  0  0 
M  END 
>  <HBA> 
2 
 
>  <HBD> 
0 
 
>  <TPSA> 
58.29 
 
>  <cid> 
30884 
 
>  <dipole> 
4.35 
 
>  <excitation_energy_1> 
3.396 
 
>  <excitation_energy_2> 
3.75 
 
>  <excitation_energy_3> 
4.151 
 
>  <excitation_energy_4> 
4.274 
 
>  <homo_energy> 
-6.43 
 
>  <homo_lumo_gap> 
4.057 
 
>  <logP> 
1.933 
 
>  <lumo_energy> 
-2.373 
 
>  <melting_point> 
69.74 
 
>  <molecular_refractivity> 
55.78 
 
>  <oscillator_strength_1> 
0.0079 
 
>  <oscillator_strength_2> 
0.0 
 
>  <oscillator_strength_3> 
0.0335 
 
>  <oscillator_strength_4> 
0.0003 
 
>  <open_babel_can_smiles> 
CN1OCc2c(C1)cc(cc2)N(=O)=O 
 
>  <mulliken_charges> 
24 
1   -0.282258 
2   -0.195532 
3   -0.150345 
4   -0.216731 
5   -0.160334 
6   -0.063615 
7   0.108318 
8   0.102427 
9   0.279206 
10   -0.218921 
11   0.377393 
12   -0.395806 
13   -0.397132 
14   -0.400325 
15   0.157915 
16   0.141664 
17   0.172034 
18   0.14302 
19   0.182285 
20   0.177054 
21   0.163122 
22   0.151615 
23   0.16383 
24   0.161113 
 
>  <lowdin_charges> 
24 
1   -0.360555 
2   -0.155489 
3   -0.135787 
4   -0.142918 
5   -0.207822 
6   -0.134715 
7   -0.001718 
8   -0.005478 
9   0.000903 
10   -0.061195 
11   0.306328 
12   -0.245818 
13   -0.249681 
14   -0.226792 
15   0.160644 
16   0.137249 
17   0.16409 
18   0.165217 
19   0.186052 
20   0.18513 
21   0.163364 
22   0.143621 
23   0.163128 
24   0.152243 
 
$$$$ 
 
