PCCDB-ID:  20548 
public computational chemistry database (PCCDB) project, http://pccdb.org 
 
 28 27  0  0  0  0  0  0  0  0999 V2000 
    3.0718   -0.9886   -1.3201 C   0  0  0  0  0  0  0  0  0  0  0  0 
    0.5926   -2.0819    1.5210 C   0  0  0  0  0  0  0  0  0  0  0  0 
    2.4150   -0.1562   -0.2095 C   0  0  0  0  0  0  0  0  0  0  0  0 
    2.1213   -1.9947    1.5965 C   0  0  0  0  0  0  0  0  0  0  0  0 
    6.9679    0.2517    0.4287 C   0  0  0  0  0  0  0  0  0  0  0  0 
    6.1285    0.8333    1.5660 C   0  0  0  0  0  0  0  0  0  0  0  0 
    4.2001   -0.5984    1.5646 C   0  0  0  0  0  0  0  0  0  0  0  0 
    2.7038   -0.6101    1.2395 C   0  0  0  0  0  0  0  0  0  0  0  0 
    6.5535    0.7850   -0.8180 O   0  0  0  0  0  0  0  0  0  0  0  0 
    4.7362    0.6944    1.2911 O   0  0  0  0  0  0  0  0  0  0  0  0 
    2.7615   -0.6203   -2.3045 H   0  0  0  0  0  0  0  0  0  0  0  0 
    2.7934   -2.0475   -1.2667 H   0  0  0  0  0  0  0  0  0  0  0  0 
    4.1661   -0.9305   -1.2856 H   0  0  0  0  0  0  0  0  0  0  0  0 
    0.2423   -3.0624    1.8624 H   0  0  0  0  0  0  0  0  0  0  0  0 
    0.2219   -1.9400    0.4998 H   0  0  0  0  0  0  0  0  0  0  0  0 
    0.1211   -1.3209    2.1549 H   0  0  0  0  0  0  0  0  0  0  0  0 
    1.3288   -0.1468   -0.3619 H   0  0  0  0  0  0  0  0  0  0  0  0 
    2.7399    0.8859   -0.3059 H   0  0  0  0  0  0  0  0  0  0  0  0 
    2.5630   -2.7631    0.9473 H   0  0  0  0  0  0  0  0  0  0  0  0 
    2.4363   -2.2496    2.6181 H   0  0  0  0  0  0  0  0  0  0  0  0 
    6.9045   -0.8492    0.4291 H   0  0  0  0  0  0  0  0  0  0  0  0 
    8.0220    0.5163    0.5716 H   0  0  0  0  0  0  0  0  0  0  0  0 
    6.3038    1.9118    1.6373 H   0  0  0  0  0  0  0  0  0  0  0  0 
    6.3865    0.3692    2.5307 H   0  0  0  0  0  0  0  0  0  0  0  0 
    4.7211   -1.3710    0.9785 H   0  0  0  0  0  0  0  0  0  0  0  0 
    4.3565   -0.8387    2.6290 H   0  0  0  0  0  0  0  0  0  0  0  0 
    2.2315    0.1293    1.9034 H   0  0  0  0  0  0  0  0  0  0  0  0 
    5.5865    0.8692   -0.7514 H   0  0  0  0  0  0  0  0  0  0  0  0 
  1 13  1  0  0  0  0 
  1 12  1  0  0  0  0 
  1  3  1  0  0  0  0 
  2  4  1  0  0  0  0 
  2 14  1  0  0  0  0 
  2 16  1  0  0  0  0 
  3  8  1  0  0  0  0 
  4 20  1  0  0  0  0 
  5 21  1  0  0  0  0 
  5 22  1  0  0  0  0 
  5  6  1  0  0  0  0 
  6 23  1  0  0  0  0 
  6 24  1  0  0  0  0 
  7 26  1  0  0  0  0 
  8  7  1  0  0  0  0 
  8  4  1  0  0  0  0 
  8 27  1  0  0  0  0 
  9 28  1  0  0  0  0 
  9  5  1  0  0  0  0 
 10  7  1  0  0  0  0 
 10  6  1  0  0  0  0 
 11  1  1  0  0  0  0 
 15  2  1  0  0  0  0 
 17  3  1  0  0  0  0 
 18  3  1  0  0  0  0 
 19  4  1  0  0  0  0 
 25  7  1  0  0  0  0 
M  END 
>  <HBA> 
2 
 
>  <HBD> 
1 
 
>  <TPSA> 
29.46 
 
>  <cid> 
20548 
 
>  <dipole> 
2.34 
 
>  <excitation_energy_1> 
6.44 
 
>  <excitation_energy_2> 
6.677 
 
>  <excitation_energy_3> 
6.876 
 
>  <excitation_energy_4> 
6.947 
 
>  <homo_energy> 
-6.846 
 
>  <homo_lumo_gap> 
8.558 
 
>  <logP> 
1.431 
 
>  <lumo_energy> 
1.712 
 
>  <melting_point> 
-18.22 
 
>  <molecular_refractivity> 
42.82 
 
>  <oscillator_strength_1> 
0.0146 
 
>  <oscillator_strength_2> 
0.0113 
 
>  <oscillator_strength_3> 
0.0036 
 
>  <oscillator_strength_4> 
0.0047 
 
>  <open_babel_can_smiles> 
OCCOCC(CC)CC 
 
>  <mulliken_charges> 
28 
1   -0.464794 
2   -0.448058 
3   -0.262799 
4   -0.261749 
5   -0.031526 
6   -0.056299 
7   -0.024688 
8   -0.091991 
9   -0.630324 
10   -0.491669 
11   0.147951 
12   0.145128 
13   0.148224 
14   0.144429 
15   0.149919 
16   0.144164 
17   0.134809 
18   0.149495 
19   0.135157 
20   0.13037 
21   0.123273 
22   0.142387 
23   0.15677 
24   0.123842 
25   0.128402 
26   0.122388 
27   0.12998 
28   0.407209 
 
>  <lowdin_charges> 
28 
1   -0.449522 
2   -0.445504 
3   -0.277581 
4   -0.276247 
5   -0.14518 
6   -0.149295 
7   -0.136587 
8   -0.135021 
9   -0.469712 
10   -0.280479 
11   0.153557 
12   0.145433 
13   0.145131 
14   0.151271 
15   0.148461 
16   0.149146 
17   0.141651 
18   0.148827 
19   0.141777 
20   0.140459 
21   0.123039 
22   0.146994 
23   0.151657 
24   0.134512 
25   0.130421 
26   0.12892 
27   0.144678 
28   0.339193 
 
$$$$ 
 
