PCCDB-ID:  36089 
public computational chemistry database (PCCDB) project, http://pccdb.org 
 
 30 30  0  0  1  0  0  0  0  0999 V2000 
    0.9387   -0.2166   -0.9487 C   0  0  0  0  0  0  0  0  0  0  0  0 
    6.8061    1.6028    1.8638 C   0  0  0  0  0  0  0  0  0  0  0  0 
    6.5627   -0.7438    2.7095 C   0  0  0  0  0  0  0  0  0  0  0  0 
    2.9264   -1.2402    0.1733 C   0  0  0  0  0  0  0  0  0  0  0  0 
    4.2902   -1.2392    0.8142 C   0  0  0  0  0  0  0  0  0  0  0  0 
    4.5567    1.0320   -0.1806 C   0  0  0  0  0  0  0  0  0  0  0  0 
    2.3348   -0.1779   -0.3853 C   0  0  0  0  0  0  0  0  0  0  0  0 
    4.8324    0.1808    1.0707 C   0  0  2  0  0  0  0  0  0  0  0  0 
    3.0526    1.1513   -0.4592 C   0  0  1  0  0  0  0  0  0  0  0  0 
    6.3226    0.1858    1.5063 C   0  0  0  0  0  0  0  0  0  0  0  0 
    2.4035    2.0301    0.4810 O   0  0  0  0  0  0  0  0  0  0  0  0 
    7.0668   -0.2999    0.3722 O   0  0  0  0  0  0  0  0  0  0  0  0 
    0.9310    0.0310   -2.0200 H   0  0  0  0  0  0  0  0  0  0  0  0 
    0.3042    0.5251   -0.4482 H   0  0  0  0  0  0  0  0  0  0  0  0 
    0.4810   -1.2033   -0.8254 H   0  0  0  0  0  0  0  0  0  0  0  0 
    6.2016    2.0429    2.6655 H   0  0  0  0  0  0  0  0  0  0  0  0 
    6.7721    2.2668    0.9965 H   0  0  0  0  0  0  0  0  0  0  0  0 
    7.8458    1.5695    2.2152 H   0  0  0  0  0  0  0  0  0  0  0  0 
    5.9401   -0.4604    3.5664 H   0  0  0  0  0  0  0  0  0  0  0  0 
    7.6112   -0.6840    3.0300 H   0  0  0  0  0  0  0  0  0  0  0  0 
    6.3506   -1.7853    2.4551 H   0  0  0  0  0  0  0  0  0  0  0  0 
    2.3912   -2.1905    0.1888 H   0  0  0  0  0  0  0  0  0  0  0  0 
    5.0031   -1.7910    0.1833 H   0  0  0  0  0  0  0  0  0  0  0  0 
    4.2259   -1.8011    1.7549 H   0  0  0  0  0  0  0  0  0  0  0  0 
    5.0546    0.5796   -1.0467 H   0  0  0  0  0  0  0  0  0  0  0  0 
    4.9647    2.0447   -0.0762 H   0  0  0  0  0  0  0  0  0  0  0  0 
    4.2565    0.6209    1.8964 H   0  0  0  0  0  0  0  0  0  0  0  0 
    2.9167    1.5600   -1.4754 H   0  0  0  0  0  0  0  0  0  0  0  0 
    2.7266    2.9278    0.3027 H   0  0  0  0  0  0  0  0  0  0  0  0 
    8.0007   -0.3388    0.6327 H   0  0  0  0  0  0  0  0  0  0  0  0 
  1 15  1  0  0  0  0 
  1 14  1  0  0  0  0 
  1  7  1  0  0  0  0 
  2 18  1  0  0  0  0 
  2 16  1  0  0  0  0 
  3 20  1  0  0  0  0 
  3 19  1  0  0  0  0 
  4 22  1  0  0  0  0 
  4  5  1  0  0  0  0 
  5  8  1  0  0  0  0 
  5 24  1  0  0  0  0 
  6 26  1  0  0  0  0 
  6  8  1  0  0  0  0 
  7  4  2  0  0  0  0 
  8 10  1  0  0  0  0 
  8 27  1  1  0  0  0 
  9 28  1  6  0  0  0 
  9  7  1  0  0  0  0 
  9  6  1  0  0  0  0 
  9 11  1  0  0  0  0 
 10  2  1  0  0  0  0 
 10  3  1  0  0  0  0 
 12 30  1  0  0  0  0 
 12 10  1  0  0  0  0 
 13  1  1  0  0  0  0 
 17  2  1  0  0  0  0 
 21  3  1  0  0  0  0 
 23  5  1  0  0  0  0 
 25  6  1  0  0  0  0 
 29 11  1  0  0  0  0 
M  END 
>  <HBA> 
2 
 
>  <HBD> 
2 
 
>  <TPSA> 
40.46 
 
>  <cid> 
36089 
 
>  <dipole> 
1.99 
 
>  <excitation_energy_1> 
5.617 
 
>  <excitation_energy_2> 
5.921 
 
>  <excitation_energy_3> 
6.139 
 
>  <excitation_energy_4> 
6.166 
 
>  <homo_energy> 
-6.221 
 
>  <homo_lumo_gap> 
7.012 
 
>  <logP> 
1.474 
 
>  <lumo_energy> 
0.792 
 
>  <melting_point> 
54.83 
 
>  <molecular_refractivity> 
49.96 
 
>  <oscillator_strength_1> 
0.0285 
 
>  <oscillator_strength_2> 
0.0304 
 
>  <oscillator_strength_3> 
0.0052 
 
>  <oscillator_strength_4> 
0.0046 
 
>  <open_babel_can_smiles> 
CC1=CC[C@H](C[C@@H]1O)C(O)(C)C 
 
>  <mulliken_charges> 
30 
1   -0.514287 
2   -0.465223 
3   -0.469013 
4   -0.172491 
5   -0.315711 
6   -0.286886 
7   0.194927 
8   -0.084377 
9   0.052903 
10   0.309938 
11   -0.626964 
12   -0.643381 
13   0.142564 
14   0.171609 
15   0.146356 
16   0.144544 
17   0.156984 
18   0.127867 
19   0.145294 
20   0.127039 
21   0.161012 
22   0.112219 
23   0.164867 
24   0.138744 
25   0.154378 
26   0.113438 
27   0.136353 
28   0.109328 
29   0.383778 
30   0.384191 
 
>  <lowdin_charges> 
30 
1   -0.438829 
2   -0.459673 
3   -0.457714 
4   -0.175185 
5   -0.280807 
6   -0.290413 
7   -0.023978 
8   -0.131614 
9   -0.001131 
10   0.123592 
11   -0.472168 
12   -0.463721 
13   0.147959 
14   0.165398 
15   0.152498 
16   0.154353 
17   0.155625 
18   0.142196 
19   0.154535 
20   0.141512 
21   0.15671 
22   0.14741 
23   0.160248 
24   0.149078 
25   0.156811 
26   0.137138 
27   0.149239 
28   0.125732 
29   0.337186 
30   0.338015 
 
$$$$ 
 
