PCCDB-ID:  33335 
public computational chemistry database (PCCDB) project, http://pccdb.org 
 
 18 19  0  0  1  0  0  0  0  0999 V2000 
   -0.8738    0.3199   -0.0000 C   0  0  0  0  0  0  0  0  0  0  0  0 
   -0.0922   -0.7589   -0.5471 C   0  0  0  0  0  0  0  0  0  0  0  0 
   -0.3851    0.5696    1.2401 C   0  0  0  0  0  0  0  0  0  0  0  0 
    4.4476   -3.5995   -0.6515 C   0  0  0  0  0  0  0  0  0  0  0  0 
    1.9685   -2.8414   -0.5658 C   0  0  0  0  0  0  0  0  0  0  0  0 
    3.0624   -3.8200   -0.2200 C   0  0  1  0  0  0  0  0  0  0  0  0 
    0.8121   -1.0702    0.4283 C   0  0  0  0  0  0  0  0  0  0  0  0 
    0.6602   -0.2858    1.5180 O   0  0  0  0  0  0  0  0  0  0  0  0 
    3.5984   -4.5308   -1.3396 O   0  0  0  0  0  0  0  0  0  0  0  0 
    1.8084   -1.9632    0.5499 O   0  0  0  0  0  0  0  0  0  0  0  0 
   -1.6927    0.8349   -0.4833 H   0  0  0  0  0  0  0  0  0  0  0  0 
   -0.1970   -1.2215   -1.5166 H   0  0  0  0  0  0  0  0  0  0  0  0 
   -0.6296    1.2679    2.0243 H   0  0  0  0  0  0  0  0  0  0  0  0 
    5.2653   -4.0445   -0.0855 H   0  0  0  0  0  0  0  0  0  0  0  0 
    4.7002   -2.6975   -1.2093 H   0  0  0  0  0  0  0  0  0  0  0  0 
    1.0251   -3.3703   -0.7604 H   0  0  0  0  0  0  0  0  0  0  0  0 
    2.2377   -2.2743   -1.4666 H   0  0  0  0  0  0  0  0  0  0  0  0 
    2.8800   -4.4273    0.6679 H   0  0  0  0  0  0  0  0  0  0  0  0 
  1  3  2  0  0  0  0 
  2  1  1  0  0  0  0 
  2  7  2  0  0  0  0 
  3  8  1  0  0  0  0 
  3 13  1  0  0  0  0 
  4  6  1  0  0  0  0 
  4 14  1  0  0  0  0 
  5  6  1  0  0  0  0 
  5 10  1  0  0  0  0 
  6 18  1  1  0  0  0 
  7 10  1  0  0  0  0 
  7  8  1  0  0  0  0 
  9  4  1  0  0  0  0 
  9  6  1  0  0  0  0 
 11  1  1  0  0  0  0 
 12  2  1  0  0  0  0 
 15  4  1  0  0  0  0 
 16  5  1  0  0  0  0 
 17  5  1  0  0  0  0 
M  END 
>  <HBA> 
3 
 
>  <HBD> 
0 
 
>  <TPSA> 
34.9 
 
>  <cid> 
33335 
 
>  <dipole> 
0.6 
 
>  <excitation_energy_1> 
5.19 
 
>  <excitation_energy_2> 
5.497 
 
>  <excitation_energy_3> 
5.633 
 
>  <excitation_energy_4> 
5.694 
 
>  <homo_energy> 
-5.527 
 
>  <homo_lumo_gap> 
6.351 
 
>  <logP> 
1.057 
 
>  <lumo_energy> 
0.825 
 
>  <melting_point> 
19.95 
 
>  <molecular_refractivity> 
33.78 
 
>  <oscillator_strength_1> 
0.0016 
 
>  <oscillator_strength_2> 
0.0013 
 
>  <oscillator_strength_3> 
0.024 
 
>  <oscillator_strength_4> 
0.2063 
 
>  <open_babel_can_smiles> 
c1coc(c1)OC[C@@H]1CO1 
 
>  <mulliken_charges> 
18 
1   -0.178394 
2   -0.227015 
3   0.067787 
4   -0.102791 
5   -0.059435 
6   0.08755 
7   0.555459 
8   -0.437864 
9   -0.442737 
10   -0.492447 
11   0.140471 
12   0.140351 
13   0.154365 
14   0.160209 
15   0.15749 
16   0.159647 
17   0.155564 
18   0.161791 
 
>  <lowdin_charges> 
18 
1   -0.193671 
2   -0.279737 
3   -0.098203 
4   -0.160688 
5   -0.124636 
6   -0.025219 
7   0.147467 
8   -0.097904 
9   -0.279863 
10   -0.177975 
11   0.169545 
12   0.169282 
13   0.172309 
14   0.160796 
15   0.156638 
16   0.151724 
17   0.151459 
18   0.158675 
 
$$$$ 
 
