PCCDB-ID:  13599 
public computational chemistry database (PCCDB) project, http://pccdb.org 
 
 10 10  0  0  0  0  0  0  0  0999 V2000 
   -1.1439    0.0197    0.1693 C   0  0  0  0  0  0  0  0  0  0  0  0 
    1.0180   -0.7479   -0.1808 C   0  0  0  0  0  0  0  0  0  0  0  0 
   -0.2921   -1.1110   -0.0030 C   0  0  0  0  0  0  0  0  0  0  0  0 
   -0.5506    1.1902    0.1304 N   0  0  0  0  0  0  0  0  0  0  0  0 
   -0.7535   -2.4834    0.0082 N   0  0  0  0  0  0  0  0  0  0  0  0 
   -1.9594   -2.6635    0.1804 O   0  0  0  0  0  0  0  0  0  0  0  0 
    0.0865   -3.3678   -0.1542 O   0  0  0  0  0  0  0  0  0  0  0  0 
    1.1032    0.9588   -0.1228 S   0  0  0  0  0  0  0  0  0  0  0  0 
   -2.2153   -0.0379    0.3247 H   0  0  0  0  0  0  0  0  0  0  0  0 
    1.8664   -1.4004   -0.3328 H   0  0  0  0  0  0  0  0  0  0  0  0 
  1  9  1  0  0  0  0 
  2  8  1  0  0  0  0 
  2  3  2  0  0  0  0 
  3  5  1  0  0  0  0 
  3  1  1  0  0  0  0 
  4  1  2  0  0  0  0 
  5  6  2  0  0  0  0 
  7  5  2  0  0  0  0 
  8  4  1  0  0  0  0 
 10  2  1  0  0  0  0 
M  END 
>  <HBA> 
2 
 
>  <HBD> 
0 
 
>  <TPSA> 
86.95 
 
>  <cid> 
13599 
 
>  <dipole> 
2.78 
 
>  <excitation_energy_1> 
3.776 
 
>  <excitation_energy_2> 
4.185 
 
>  <excitation_energy_3> 
4.66 
 
>  <excitation_energy_4> 
4.933 
 
>  <homo_energy> 
-8.177 
 
>  <homo_lumo_gap> 
5.393 
 
>  <logP> 
1.575 
 
>  <lumo_energy> 
-2.784 
 
>  <melting_point> 
56.84 
 
>  <molecular_refractivity> 
30.94 
 
>  <oscillator_strength_1> 
0.0 
 
>  <oscillator_strength_2> 
0.0004 
 
>  <oscillator_strength_3> 
0.1228 
 
>  <oscillator_strength_4> 
0.0868 
 
>  <open_babel_can_smiles> 
O=N(=O)c1csnc1 
 
>  <mulliken_charges> 
10 
1   0.038523 
2   -0.343159 
3   0.299727 
4   -0.466069 
5   0.359708 
6   -0.385607 
7   -0.395443 
8   0.458188 
9   0.204075 
10   0.230056 
 
>  <lowdin_charges> 
10 
1   -0.094334 
2   -0.286511 
3   -0.043402 
4   -0.303135 
5   0.311765 
6   -0.237347 
7   -0.243957 
8   0.488086 
9   0.192939 
10   0.215897 
 
$$$$ 
 
