PCCDB-ID:  47540 
public computational chemistry database (PCCDB) project, http://pccdb.org 
 
 38 39  0  0  0  0  0  0  0  0999 V2000 
    2.1680   -0.5231    0.7593 C   0  0  0  0  0  0  0  0  0  0  0  0 
    3.1693    0.7562   -3.5515 C   0  0  0  0  0  0  0  0  0  0  0  0 
    7.2967   -1.7998    0.1593 C   0  0  0  0  0  0  0  0  0  0  0  0 
    2.4016    0.0861   -0.6256 C   0  0  0  0  0  0  0  0  0  0  0  0 
    2.9073   -0.6224   -2.9180 C   0  0  0  0  0  0  0  0  0  0  0  0 
    9.6850   -3.6057   -4.5407 C   0  0  0  0  0  0  0  0  0  0  0  0 
    9.7511   -2.2430   -4.8270 C   0  0  0  0  0  0  0  0  0  0  0  0 
    8.8950   -4.0915   -3.4815 C   0  0  0  0  0  0  0  0  0  0  0  0 
    9.0312   -1.3022   -4.0662 C   0  0  0  0  0  0  0  0  0  0  0  0 
    5.3402   -2.0649   -1.5061 C   0  0  0  0  0  0  0  0  0  0  0  0 
    4.6459   -0.7345   -1.1770 C   0  0  0  0  0  0  0  0  0  0  0  0 
    8.1932   -3.1567   -2.7446 C   0  0  0  0  0  0  0  0  0  0  0  0 
    8.2612   -1.7940   -3.0300 C   0  0  0  0  0  0  0  0  0  0  0  0 
    6.8509   -2.0691   -1.2697 C   0  0  0  0  0  0  0  0  0  0  0  0 
    3.2149   -0.7737   -1.4915 N   0  0  0  0  0  0  0  0  0  0  0  0 
    7.3641   -3.3695   -1.6741 O   0  0  0  0  0  0  0  0  0  0  0  0 
    7.4793   -1.0934   -2.1473 O   0  0  0  0  0  0  0  0  0  0  0  0 
    1.5216    0.1287    1.3591 H   0  0  0  0  0  0  0  0  0  0  0  0 
    3.1032   -0.6562    1.3150 H   0  0  0  0  0  0  0  0  0  0  0  0 
    1.6899   -1.5037    0.6675 H   0  0  0  0  0  0  0  0  0  0  0  0 
    2.8915    0.7389   -4.6120 H   0  0  0  0  0  0  0  0  0  0  0  0 
    4.2253    1.0416   -3.4932 H   0  0  0  0  0  0  0  0  0  0  0  0 
    2.5798    1.5427   -3.0669 H   0  0  0  0  0  0  0  0  0  0  0  0 
    6.8431   -2.5272    0.8396 H   0  0  0  0  0  0  0  0  0  0  0  0 
    7.0077   -0.7922    0.4714 H   0  0  0  0  0  0  0  0  0  0  0  0 
    8.3849   -1.8863    0.2234 H   0  0  0  0  0  0  0  0  0  0  0  0 
    2.8288    1.1009   -0.5170 H   0  0  0  0  0  0  0  0  0  0  0  0 
    1.4290    0.2161   -1.1152 H   0  0  0  0  0  0  0  0  0  0  0  0 
    3.4730   -1.3823   -3.4697 H   0  0  0  0  0  0  0  0  0  0  0  0 
    1.8488   -0.8818   -3.0493 H   0  0  0  0  0  0  0  0  0  0  0  0 
   10.2515   -4.3103   -5.1423 H   0  0  0  0  0  0  0  0  0  0  0  0 
   10.3674   -1.8950   -5.6507 H   0  0  0  0  0  0  0  0  0  0  0  0 
    8.8369   -5.1492   -3.2477 H   0  0  0  0  0  0  0  0  0  0  0  0 
    9.0743   -0.2392   -4.2788 H   0  0  0  0  0  0  0  0  0  0  0  0 
    5.1871   -2.3270   -2.5586 H   0  0  0  0  0  0  0  0  0  0  0  0 
    4.8919   -2.8674   -0.9097 H   0  0  0  0  0  0  0  0  0  0  0  0 
    5.1704    0.0913   -1.6869 H   0  0  0  0  0  0  0  0  0  0  0  0 
    4.7438   -0.5420   -0.1042 H   0  0  0  0  0  0  0  0  0  0  0  0 
  1 19  1  0  0  0  0 
  1 18  1  0  0  0  0 
  2 22  1  0  0  0  0 
  2 23  1  0  0  0  0 
  2  5  1  0  0  0  0 
  3 26  1  0  0  0  0 
  3 25  1  0  0  0  0 
  3 24  1  0  0  0  0 
  4 27  1  0  0  0  0 
  4  1  1  0  0  0  0 
  5 15  1  0  0  0  0 
  6  8  1  0  0  0  0 
  7  6  2  0  0  0  0 
  7  9  1  0  0  0  0 
  8 33  1  0  0  0  0 
  8 12  2  0  0  0  0 
  9 13  2  0  0  0  0 
 10 14  1  0  0  0  0 
 10 11  1  0  0  0  0 
 10 36  1  0  0  0  0 
 11 38  1  0  0  0  0 
 12 16  1  0  0  0  0 
 13 12  1  0  0  0  0 
 13 17  1  0  0  0  0 
 14  3  1  0  0  0  0 
 15 11  1  0  0  0  0 
 15  4  1  0  0  0  0 
 16 14  1  0  0  0  0 
 17 14  1  0  0  0  0 
 20  1  1  0  0  0  0 
 21  2  1  0  0  0  0 
 28  4  1  0  0  0  0 
 29  5  1  0  0  0  0 
 30  5  1  0  0  0  0 
 31  6  1  0  0  0  0 
 32  7  1  0  0  0  0 
 34  9  1  0  0  0  0 
 35 10  1  0  0  0  0 
 37 11  1  0  0  0  0 
M  END 
>  <HBA> 
3 
 
>  <HBD> 
0 
 
>  <TPSA> 
21.7 
 
>  <cid> 
47540 
 
>  <dipole> 
1.17 
 
>  <excitation_energy_1> 
4.747 
 
>  <excitation_energy_2> 
4.984 
 
>  <excitation_energy_3> 
5.086 
 
>  <excitation_energy_4> 
5.151 
 
>  <homo_energy> 
-5.344 
 
>  <homo_lumo_gap> 
5.573 
 
>  <logP> 
2.906 
 
>  <lumo_energy> 
0.229 
 
>  <melting_point> 
46.78 
 
>  <molecular_refractivity> 
69.09 
 
>  <oscillator_strength_1> 
0.0963 
 
>  <oscillator_strength_2> 
0.0214 
 
>  <oscillator_strength_3> 
0.0015 
 
>  <oscillator_strength_4> 
0.0027 
 
>  <open_babel_can_smiles> 
CCN(CCC1(C)Oc2c(O1)cccc2)CC 
 
>  <mulliken_charges> 
38 
1   -0.439232 
2   -0.45789 
3   -0.454154 
4   -0.120423 
5   -0.138789 
6   -0.144061 
7   -0.144303 
8   -0.193331 
9   -0.192925 
10   -0.260246 
11   -0.142452 
12   0.336747 
13   0.337833 
14   0.479309 
15   -0.379744 
16   -0.556368 
17   -0.554408 
18   0.138892 
19   0.142728 
20   0.153972 
21   0.14338 
22   0.153621 
23   0.14706 
24   0.160157 
25   0.162661 
26   0.166908 
27   0.116891 
28   0.136471 
29   0.141177 
30   0.13924 
31   0.127541 
32   0.127345 
33   0.139921 
34   0.138668 
35   0.152679 
36   0.155592 
37   0.141518 
38   0.138013 
 
>  <lowdin_charges> 
38 
1   -0.451255 
2   -0.464818 
3   -0.452592 
4   -0.194797 
5   -0.202542 
6   -0.168568 
7   -0.168006 
8   -0.186632 
9   -0.186527 
10   -0.29117 
11   -0.204577 
12   0.071098 
13   0.068714 
14   0.241935 
15   -0.191477 
16   -0.203861 
17   -0.206262 
18   0.151098 
19   0.145784 
20   0.153479 
21   0.151925 
22   0.149979 
23   0.14993 
24   0.165372 
25   0.163143 
26   0.165742 
27   0.119384 
28   0.144374 
29   0.14473 
30   0.141144 
31   0.159893 
32   0.158979 
33   0.166227 
34   0.165491 
35   0.155807 
36   0.161238 
37   0.133895 
38   0.143722 
 
$$$$ 
 
