PCCDB-ID:  73376 
public computational chemistry database (PCCDB) project, http://pccdb.org 
 
 25 24  0  0  0  0  0  0  0  0999 V2000 
   -0.4888   -1.0568   -1.1716 C   0  0  0  0  0  0  0  0  0  0  0  0 
    0.1924    3.3557   -0.7796 C   0  0  0  0  0  0  0  0  0  0  0  0 
   -0.2373    0.1122   -0.2156 C   0  0  0  0  0  0  0  0  0  0  0  0 
    0.5494    2.0739   -1.5336 C   0  0  0  0  0  0  0  0  0  0  0  0 
    4.1774   -0.7687    1.1449 C   0  0  0  0  0  0  0  0  0  0  0  0 
    4.6976    0.0046    2.3628 C   0  0  0  0  0  0  0  0  0  0  0  0 
    2.1678    0.7697   -0.2171 C   0  0  0  0  0  0  0  0  0  0  0  0 
    0.8994    0.9612   -0.6249 N   0  0  0  0  0  0  0  0  0  0  0  0 
    5.0830   -0.5604    3.3578 O   0  0  0  0  0  0  0  0  0  0  0  0 
    4.7080    1.3416    2.2535 O   0  0  0  0  0  0  0  0  0  0  0  0 
    3.4599    1.7476   -0.6935 S   0  0  0  0  0  0  0  0  0  0  0  0 
    2.3670   -0.6412    0.8869 S   0  0  0  0  0  0  0  0  0  0  0  0 
   -1.3612   -1.6277   -0.8355 H   0  0  0  0  0  0  0  0  0  0  0  0 
    0.3716   -1.7310   -1.2031 H   0  0  0  0  0  0  0  0  0  0  0  0 
   -0.6877   -0.7020   -2.1885 H   0  0  0  0  0  0  0  0  0  0  0  0 
   -0.0893    4.1367   -1.4943 H   0  0  0  0  0  0  0  0  0  0  0  0 
    1.0493    3.7119   -0.2016 H   0  0  0  0  0  0  0  0  0  0  0  0 
   -0.6511    3.2013   -0.0974 H   0  0  0  0  0  0  0  0  0  0  0  0 
   -0.0732   -0.2445    0.8043 H   0  0  0  0  0  0  0  0  0  0  0  0 
   -1.1135    0.7668   -0.1733 H   0  0  0  0  0  0  0  0  0  0  0  0 
    1.3917    2.2441   -2.2044 H   0  0  0  0  0  0  0  0  0  0  0  0 
   -0.2974    1.7285   -2.1356 H   0  0  0  0  0  0  0  0  0  0  0  0 
    4.3517   -1.8307    1.3252 H   0  0  0  0  0  0  0  0  0  0  0  0 
    4.6745   -0.4582    0.2209 H   0  0  0  0  0  0  0  0  0  0  0  0 
    4.3909    1.6155    1.3591 H   0  0  0  0  0  0  0  0  0  0  0  0 
  1 13  1  0  0  0  0 
  1  3  1  0  0  0  0 
  2 17  1  0  0  0  0 
  2 18  1  0  0  0  0 
  3 20  1  0  0  0  0 
  3 19  1  0  0  0  0 
  4  2  1  0  0  0  0 
  4  8  1  0  0  0  0 
  5 23  1  0  0  0  0 
  5  6  1  0  0  0  0 
  6  9  2  0  0  0  0 
  7 12  1  0  0  0  0 
  8  7  1  0  0  0  0 
  8  3  1  0  0  0  0 
 10  6  1  0  0  0  0 
 11  7  2  0  0  0  0 
 12  5  1  0  0  0  0 
 14  1  1  0  0  0  0 
 15  1  1  0  0  0  0 
 16  2  1  0  0  0  0 
 21  4  1  0  0  0  0 
 22  4  1  0  0  0  0 
 24  5  1  0  0  0  0 
 25 10  1  0  0  0  0 
M  END 
>  <HBA> 
5 
 
>  <HBD> 
1 
 
>  <TPSA> 
97.93 
 
>  <cid> 
73376 
 
>  <dipole> 
7.67 
 
>  <excitation_energy_1> 
3.847 
 
>  <excitation_energy_2> 
4.754 
 
>  <excitation_energy_3> 
5.037 
 
>  <excitation_energy_4> 
5.084 
 
>  <homo_energy> 
-6.46 
 
>  <homo_lumo_gap> 
5.135 
 
>  <logP> 
1.431 
 
>  <lumo_energy> 
-1.325 
 
>  <melting_point> 
91.9 
 
>  <molecular_refractivity> 
55.81 
 
>  <oscillator_strength_1> 
0.0007 
 
>  <oscillator_strength_2> 
0.0779 
 
>  <oscillator_strength_3> 
0.1574 
 
>  <oscillator_strength_4> 
0.0176 
 
>  <open_babel_can_smiles> 
CCN(C(=S)SCC(=O)O)CC 
 
>  <mulliken_charges> 
25 
1   -0.444603 
2   -0.446773 
3   -0.189312 
4   -0.166045 
5   -0.561458 
6   0.598309 
7   -0.011655 
8   -0.320638 
9   -0.436657 
10   -0.564111 
11   -0.258735 
12   0.190519 
13   0.162646 
14   0.182565 
15   0.159689 
16   0.159708 
17   0.18986 
18   0.150893 
19   0.201682 
20   0.1705 
21   0.205691 
22   0.157068 
23   0.21884 
24   0.232485 
25   0.419532 
 
>  <lowdin_charges> 
25 
1   -0.450428 
2   -0.451123 
3   -0.200977 
4   -0.196945 
5   -0.419193 
6   0.187625 
7   -0.150377 
8   -0.052702 
9   -0.245227 
10   -0.354222 
11   -0.233084 
12   0.185622 
13   0.164099 
14   0.168098 
15   0.155655 
16   0.162999 
17   0.172981 
18   0.151914 
19   0.173193 
20   0.161606 
21   0.18067 
22   0.153726 
23   0.194637 
24   0.198997 
25   0.342457 
 
$$$$ 
 
