PCCDB-ID:  34005 
public computational chemistry database (PCCDB) project, http://pccdb.org 
 
 14 14  0  0  0  0  0  0  0  0999 V2000 
   -1.2499    0.1856    0.2365 C   0  0  0  0  0  0  0  0  0  0  0  0 
   -0.4769   -1.0140    0.1574 C   0  0  0  0  0  0  0  0  0  0  0  0 
   -0.4882    1.3095    0.0801 C   0  0  0  0  0  0  0  0  0  0  0  0 
    1.9746   -1.7917   -0.1330 C   0  0  0  0  0  0  0  0  0  0  0  0 
    0.8584   -0.7898   -0.0511 C   0  0  0  0  0  0  0  0  0  0  0  0 
    2.9585   -1.4031   -1.1484 N   0  0  0  0  0  0  0  0  0  0  0  0 
    1.1864    0.9239   -0.1726 S   0  0  0  0  0  0  0  0  0  0  0  0 
   -2.3232    0.2036    0.3941 H   0  0  0  0  0  0  0  0  0  0  0  0 
   -0.8973   -2.0103    0.2555 H   0  0  0  0  0  0  0  0  0  0  0  0 
   -0.8132    2.3415    0.0716 H   0  0  0  0  0  0  0  0  0  0  0  0 
    1.5198   -2.7874   -0.2828 H   0  0  0  0  0  0  0  0  0  0  0  0 
    2.5082   -1.8365    0.8267 H   0  0  0  0  0  0  0  0  0  0  0  0 
    2.5401   -1.4571   -2.0757 H   0  0  0  0  0  0  0  0  0  0  0  0 
    3.7459   -2.0486   -1.1380 H   0  0  0  0  0  0  0  0  0  0  0  0 
  1  8  1  0  0  0  0 
  2  1  1  0  0  0  0 
  2  9  1  0  0  0  0 
  3  1  2  0  0  0  0 
  4  5  1  0  0  0  0 
  4 12  1  0  0  0  0 
  5  2  2  0  0  0  0 
  6 14  1  0  0  0  0 
  6  4  1  0  0  0  0 
  7  5  1  0  0  0  0 
  7  3  1  0  0  0  0 
 10  3  1  0  0  0  0 
 11  4  1  0  0  0  0 
 13  6  1  0  0  0  0 
M  END 
>  <HBA> 
2 
 
>  <HBD> 
1 
 
>  <TPSA> 
54.26 
 
>  <cid> 
34005 
 
>  <dipole> 
1.95 
 
>  <excitation_energy_1> 
5.197 
 
>  <excitation_energy_2> 
5.522 
 
>  <excitation_energy_3> 
5.572 
 
>  <excitation_energy_4> 
5.659 
 
>  <homo_energy> 
-5.959 
 
>  <homo_lumo_gap> 
5.864 
 
>  <logP> 
1.907 
 
>  <lumo_energy> 
-0.095 
 
>  <melting_point> 
60.63 
 
>  <molecular_refractivity> 
31.99 
 
>  <oscillator_strength_1> 
0.0952 
 
>  <oscillator_strength_2> 
0.0284 
 
>  <oscillator_strength_3> 
0.0338 
 
>  <oscillator_strength_4> 
0.0512 
 
>  <open_babel_can_smiles> 
NCc1cccs1 
 
>  <mulliken_charges> 
14 
1   -0.097104 
2   -0.130121 
3   -0.351132 
4   -0.186712 
5   -0.117064 
6   -0.711742 
7   0.25944 
8   0.135131 
9   0.129484 
10   0.166129 
11   0.132982 
12   0.164502 
13   0.304631 
14   0.301575 
 
>  <lowdin_charges> 
14 
1   -0.182835 
2   -0.19879 
3   -0.32529 
4   -0.195113 
5   -0.169345 
6   -0.547248 
7   0.317171 
8   0.160339 
9   0.159506 
10   0.177739 
11   0.131442 
12   0.155348 
13   0.258485 
14   0.258591 
 
$$$$ 
 
