PCCDB-ID:  66683 
public computational chemistry database (PCCDB) project, http://pccdb.org 
 
 24 26  0  0  0  0  0  0  0  0999 V2000 
   -0.3916    1.0607   -0.3436 C   0  0  0  0  0  0  0  0  0  0  0  0 
    0.9458    0.6041   -0.1710 C   0  0  0  0  0  0  0  0  0  0  0  0 
   -1.4553    0.2382   -0.1239 C   0  0  0  0  0  0  0  0  0  0  0  0 
    2.5055   -2.7084    0.7550 C   0  0  0  0  0  0  0  0  0  0  0  0 
    3.7190   -3.3756    0.9784 C   0  0  0  0  0  0  0  0  0  0  0  0 
    3.6574   -0.5823    0.4017 C   0  0  0  0  0  0  0  0  0  0  0  0 
    6.9793   -1.8517    0.9060 C   0  0  0  0  0  0  0  0  0  0  0  0 
    2.4550   -1.3345    0.4661 C   0  0  0  0  0  0  0  0  0  0  0  0 
    1.1573   -0.6852    0.2331 C   0  0  0  0  0  0  0  0  0  0  0  0 
    4.8729   -2.6206    0.9048 C   0  0  0  0  0  0  0  0  0  0  0  0 
    4.8355   -1.2546    0.6220 C   0  0  0  0  0  0  0  0  0  0  0  0 
   -1.2554   -1.1318    0.2888 C   0  0  0  0  0  0  0  0  0  0  0  0 
   -2.0874   -1.9797    0.5071 O   0  0  0  0  0  0  0  0  0  0  0  0 
    6.1682   -3.0225    1.0822 O   0  0  0  0  0  0  0  0  0  0  0  0 
    6.1126   -0.7494    0.6147 O   0  0  0  0  0  0  0  0  0  0  0  0 
    0.1018   -1.5064    0.4537 O   0  0  0  0  0  0  0  0  0  0  0  0 
   -0.5584    2.0875   -0.6596 H   0  0  0  0  0  0  0  0  0  0  0  0 
    1.7784    1.2666   -0.3653 H   0  0  0  0  0  0  0  0  0  0  0  0 
   -2.4826    0.5587   -0.2489 H   0  0  0  0  0  0  0  0  0  0  0  0 
    1.5781   -3.2650    0.8045 H   0  0  0  0  0  0  0  0  0  0  0  0 
    3.7503   -4.4366    1.1993 H   0  0  0  0  0  0  0  0  0  0  0  0 
    3.6660    0.4812    0.1970 H   0  0  0  0  0  0  0  0  0  0  0  0 
    7.6666   -2.0097    0.0670 H   0  0  0  0  0  0  0  0  0  0  0  0 
    7.5310   -1.6501    1.8314 H   0  0  0  0  0  0  0  0  0  0  0  0 
  1  2  1  0  0  0  0 
  1  3  2  0  0  0  0 
  2  9  2  0  0  0  0 
  3 12  1  0  0  0  0 
  4 20  1  0  0  0  0 
  4  5  2  0  0  0  0 
  5 21  1  0  0  0  0 
  6  8  2  0  0  0  0 
  6 11  1  0  0  0  0 
  7 14  1  0  0  0  0 
  7 24  1  0  0  0  0 
  8  4  1  0  0  0  0 
  9 16  1  0  0  0  0 
  9  8  1  0  0  0  0 
 10  5  1  0  0  0  0 
 10 14  1  0  0  0  0 
 11 10  2  0  0  0  0 
 12 16  1  0  0  0  0 
 12 13  2  0  0  0  0 
 15 11  1  0  0  0  0 
 15  7  1  0  0  0  0 
 17  1  1  0  0  0  0 
 18  2  1  0  0  0  0 
 19  3  1  0  0  0  0 
 22  6  1  0  0  0  0 
 23  7  1  0  0  0  0 
M  END 
>  <HBA> 
4 
 
>  <HBD> 
0 
 
>  <TPSA> 
48.67 
 
>  <cid> 
66683 
 
>  <dipole> 
5.37 
 
>  <excitation_energy_1> 
3.48 
 
>  <excitation_energy_2> 
4.041 
 
>  <excitation_energy_3> 
4.402 
 
>  <excitation_energy_4> 
4.445 
 
>  <homo_energy> 
-5.69 
 
>  <homo_lumo_gap> 
3.842 
 
>  <logP> 
2.035 
 
>  <lumo_energy> 
-1.848 
 
>  <melting_point> 
110.72 
 
>  <molecular_refractivity> 
56.48 
 
>  <oscillator_strength_1> 
0.4566 
 
>  <oscillator_strength_2> 
0.0559 
 
>  <oscillator_strength_3> 
0.0094 
 
>  <oscillator_strength_4> 
0.0004 
 
>  <open_babel_can_smiles> 
O=c1cccc(o1)c1ccc2c(c1)OCO2 
 
>  <mulliken_charges> 
24 
1   -0.090836 
2   -0.21203 
3   -0.214889 
4   -0.184149 
5   -0.181846 
6   -0.231507 
7   0.191672 
8   0.067003 
9   0.348479 
10   0.346731 
11   0.332986 
12   0.589617 
13   -0.473224 
14   -0.525455 
15   -0.532698 
16   -0.509613 
17   0.152467 
18   0.14954 
19   0.159584 
20   0.175931 
21   0.156248 
22   0.152113 
23   0.166917 
24   0.16696 
 
>  <lowdin_charges> 
24 
1   -0.102297 
2   -0.232009 
3   -0.214432 
4   -0.146319 
5   -0.175859 
6   -0.176568 
7   0.018856 
8   -0.027997 
9   0.136627 
10   0.082875 
11   0.073681 
12   0.19948 
13   -0.252288 
14   -0.1959 
15   -0.203829 
16   -0.136775 
17   0.167585 
18   0.17194 
19   0.178806 
20   0.183142 
21   0.174425 
22   0.171347 
23   0.153021 
24   0.152489 
 
$$$$ 
 
