PCCDB-ID:  27369 
public computational chemistry database (PCCDB) project, http://pccdb.org 
 
 20 20  0  0  0  0  0  0  0  0999 V2000 
   -0.6781   -1.6418    0.4833 C   0  0  0  0  0  0  0  0  0  0  0  0 
    0.8529   -1.6377    0.3738 C   0  0  0  0  0  0  0  0  0  0  0  0 
   -2.3002    0.2824    0.9383 C   0  0  0  0  0  0  0  0  0  0  0  0 
    2.4509    0.2585   -0.2560 C   0  0  0  0  0  0  0  0  0  0  0  0 
    0.0750    0.5526    0.3352 C   0  0  0  0  0  0  0  0  0  0  0  0 
   -0.9466   -0.2328    0.7923 N   0  0  0  0  0  0  0  0  0  0  0  0 
    1.1051   -0.2573   -0.0538 N   0  0  0  0  0  0  0  0  0  0  0  0 
   -2.9323    0.5568   -0.2878 O   0  0  0  0  0  0  0  0  0  0  0  0 
    3.0918    0.6405    0.9364 O   0  0  0  0  0  0  0  0  0  0  0  0 
    0.0660    2.2368    0.2649 S   0  0  0  0  0  0  0  0  0  0  0  0 
   -1.0490   -2.2944    1.2783 H   0  0  0  0  0  0  0  0  0  0  0  0 
   -1.1554   -1.9251   -0.4650 H   0  0  0  0  0  0  0  0  0  0  0  0 
    1.2327   -2.3516   -0.3621 H   0  0  0  0  0  0  0  0  0  0  0  0 
    1.3322   -1.8331    1.3431 H   0  0  0  0  0  0  0  0  0  0  0  0 
   -2.2392    1.1701    1.5752 H   0  0  0  0  0  0  0  0  0  0  0  0 
   -2.8920   -0.4890    1.4359 H   0  0  0  0  0  0  0  0  0  0  0  0 
    2.3729    1.0895   -0.9636 H   0  0  0  0  0  0  0  0  0  0  0  0 
    3.0468   -0.5450   -0.6945 H   0  0  0  0  0  0  0  0  0  0  0  0 
   -2.5180    1.3696   -0.6289 H   0  0  0  0  0  0  0  0  0  0  0  0 
    2.6739    1.4761    1.2115 H   0  0  0  0  0  0  0  0  0  0  0  0 
  1  6  1  0  0  0  0 
  1 11  1  0  0  0  0 
  2  1  1  0  0  0  0 
  2 14  1  0  0  0  0 
  3 16  1  0  0  0  0 
  3 15  1  0  0  0  0 
  4  7  1  0  0  0  0 
  4  9  1  0  0  0  0 
  5  6  1  0  0  0  0 
  6  3  1  0  0  0  0 
  7  5  1  0  0  0  0 
  7  2  1  0  0  0  0 
  8  3  1  0  0  0  0 
  9 20  1  0  0  0  0 
 10  5  2  0  0  0  0 
 12  1  1  0  0  0  0 
 13  2  1  0  0  0  0 
 17  4  1  0  0  0  0 
 18  4  1  0  0  0  0 
 19  8  1  0  0  0  0 
M  END 
>  <HBA> 
5 
 
>  <HBD> 
2 
 
>  <TPSA> 
79.03 
 
>  <cid> 
27369 
 
>  <dipole> 
3.84 
 
>  <excitation_energy_1> 
4.207 
 
>  <excitation_energy_2> 
5.113 
 
>  <excitation_energy_3> 
5.456 
 
>  <excitation_energy_4> 
5.615 
 
>  <homo_energy> 
-6.036 
 
>  <homo_lumo_gap> 
5.608 
 
>  <logP> 
-1.336 
 
>  <lumo_energy> 
-0.427 
 
>  <melting_point> 
69.55 
 
>  <molecular_refractivity> 
47.77 
 
>  <oscillator_strength_1> 
0.0002 
 
>  <oscillator_strength_2> 
0.1678 
 
>  <oscillator_strength_3> 
0.0078 
 
>  <oscillator_strength_4> 
0.0268 
 
>  <open_babel_can_smiles> 
OCN1CCN(C1=S)CO 
 
>  <mulliken_charges> 
20 
1   -0.142699 
2   -0.142618 
3   0.061764 
4   0.061854 
5   0.362173 
6   -0.420275 
7   -0.420175 
8   -0.605562 
9   -0.605413 
10   -0.335559 
11   0.168181 
12   0.17589 
13   0.168161 
14   0.175965 
15   0.180521 
16   0.155155 
17   0.18055 
18   0.155082 
19   0.413522 
20   0.413482 
 
>  <lowdin_charges> 
20 
1   -0.194061 
2   -0.193785 
3   -0.077995 
4   -0.078265 
5   0.001419 
6   -0.108055 
7   -0.107348 
8   -0.457623 
9   -0.457117 
10   -0.303583 
11   0.161291 
12   0.155442 
13   0.161387 
14   0.155157 
15   0.161687 
16   0.15556 
17   0.161979 
18   0.155324 
19   0.354381 
20   0.354204 
 
$$$$ 
 
