PCCDB-ID:  10895 
public computational chemistry database (PCCDB) project, http://pccdb.org 
 
 23 22  0  0  0  0  0  0  0  0999 V2000 
   10.6503   -1.1529    3.1485 C   0  0  0  0  0  0  0  0  0  0  0  0 
    5.5935   -5.8202    2.2599 C   0  0  0  0  0  0  0  0  0  0  0  0 
    7.8221   -6.1086    1.0782 C   0  0  0  0  0  0  0  0  0  0  0  0 
    9.9996   -1.8926    1.9813 C   0  0  0  0  0  0  0  0  0  0  0  0 
    6.8493   -3.7995    1.4831 C   0  0  0  0  0  0  0  0  0  0  0  0 
    6.9894   -5.2273    2.0182 C   0  0  0  0  0  0  0  0  0  0  0  0 
    8.6650   -2.5146    2.3476 C   0  0  0  0  0  0  0  0  0  0  0  0 
    8.1349   -2.4472    3.4359 O   0  0  0  0  0  0  0  0  0  0  0  0 
    8.1312   -3.1597    1.2823 O   0  0  0  0  0  0  0  0  0  0  0  0 
   11.6072   -0.7194    2.8402 H   0  0  0  0  0  0  0  0  0  0  0  0 
   10.8316   -1.8287    3.9896 H   0  0  0  0  0  0  0  0  0  0  0  0 
   10.0055   -0.3467    3.5104 H   0  0  0  0  0  0  0  0  0  0  0  0 
    5.6687   -6.8312    2.6754 H   0  0  0  0  0  0  0  0  0  0  0  0 
    5.0239   -5.8898    1.3238 H   0  0  0  0  0  0  0  0  0  0  0  0 
    5.0129   -5.2117    2.9631 H   0  0  0  0  0  0  0  0  0  0  0  0 
    7.9600   -7.1098    1.5023 H   0  0  0  0  0  0  0  0  0  0  0  0 
    8.8115   -5.6762    0.8989 H   0  0  0  0  0  0  0  0  0  0  0  0 
    7.3249   -6.2241    0.1059 H   0  0  0  0  0  0  0  0  0  0  0  0 
   10.6480   -2.6943    1.6044 H   0  0  0  0  0  0  0  0  0  0  0  0 
    9.8347   -1.2258    1.1253 H   0  0  0  0  0  0  0  0  0  0  0  0 
    6.2543   -3.1869    2.1654 H   0  0  0  0  0  0  0  0  0  0  0  0 
    6.3836   -3.7985    0.4922 H   0  0  0  0  0  0  0  0  0  0  0  0 
    7.5031   -5.1578    2.9862 H   0  0  0  0  0  0  0  0  0  0  0  0 
  1 12  1  0  0  0  0 
  1 11  1  0  0  0  0 
  2 13  1  0  0  0  0 
  2 15  1  0  0  0  0 
  3 16  1  0  0  0  0 
  3  6  1  0  0  0  0 
  4  7  1  0  0  0  0 
  4  1  1  0  0  0  0 
  5  6  1  0  0  0  0 
  5 21  1  0  0  0  0 
  6  2  1  0  0  0  0 
  6 23  1  0  0  0  0 
  7  8  2  0  0  0  0 
  9  5  1  0  0  0  0 
  9  7  1  0  0  0  0 
 10  1  1  0  0  0  0 
 14  2  1  0  0  0  0 
 17  3  1  0  0  0  0 
 18  3  1  0  0  0  0 
 19  4  1  0  0  0  0 
 20  4  1  0  0  0  0 
 22  5  1  0  0  0  0 
M  END 
>  <HBA> 
2 
 
>  <HBD> 
0 
 
>  <TPSA> 
26.3 
 
>  <cid> 
10895 
 
>  <dipole> 
1.55 
 
>  <excitation_energy_1> 
5.836 
 
>  <excitation_energy_2> 
6.937 
 
>  <excitation_energy_3> 
7.343 
 
>  <excitation_energy_4> 
7.437 
 
>  <homo_energy> 
-7.287 
 
>  <homo_lumo_gap> 
7.736 
 
>  <logP> 
1.596 
 
>  <lumo_energy> 
0.449 
 
>  <melting_point> 
-14.79 
 
>  <molecular_refractivity> 
37.05 
 
>  <oscillator_strength_1> 
0.0008 
 
>  <oscillator_strength_2> 
0.0176 
 
>  <oscillator_strength_3> 
0.0449 
 
>  <oscillator_strength_4> 
0.0183 
 
>  <open_babel_can_smiles> 
CCC(=O)OCC(C)C 
 
>  <mulliken_charges> 
23 
1   -0.435057 
2   -0.452091 
3   -0.443269 
4   -0.353239 
5   -0.038335 
6   -0.096444 
7   0.622569 
8   -0.477965 
9   -0.46988 
10   0.142268 
11   0.161473 
12   0.162403 
13   0.149509 
14   0.140135 
15   0.150428 
16   0.143479 
17   0.153662 
18   0.137373 
19   0.171181 
20   0.172504 
21   0.16518 
22   0.143079 
23   0.151039 
 
>  <lowdin_charges> 
23 
1   -0.440912 
2   -0.44492 
3   -0.44544 
4   -0.301741 
5   -0.13561 
6   -0.132521 
7   0.196861 
8   -0.267459 
9   -0.197766 
10   0.151489 
11   0.15959 
12   0.160359 
13   0.153501 
14   0.146135 
15   0.153987 
16   0.149632 
17   0.153434 
18   0.144806 
19   0.168868 
20   0.169272 
21   0.159701 
22   0.148198 
23   0.150535 
 
$$$$ 
 
