PCCDB-ID:  44652 
public computational chemistry database (PCCDB) project, http://pccdb.org 
 
 24 23  0  0  1  0  0  0  0  0999 V2000 
    4.8816    0.9643   -0.3457 C   0  0  0  0  0  0  0  0  0  0  0  0 
   -0.2177    0.1583    1.6263 C   0  0  0  0  0  0  0  0  0  0  0  0 
    0.4259   -0.9561    3.6489 C   0  0  0  0  0  0  0  0  0  0  0  0 
    4.1337   -0.0459    0.5302 C   0  0  0  0  0  0  0  0  0  0  0  0 
    2.0783   -0.5882    1.9108 C   0  0  0  0  0  0  0  0  0  0  0  0 
    2.8642    0.5225    1.1802 C   0  0  1  0  0  0  0  0  0  0  0  0 
    3.2016    1.6541    2.0537 N   0  0  0  0  0  0  0  0  0  0  0  0 
    0.8693   -0.0829    2.5691 N   0  0  0  0  0  0  0  0  0  0  0  0 
    5.8005    0.5280   -0.7539 H   0  0  0  0  0  0  0  0  0  0  0  0 
    5.1430    1.8573    0.2286 H   0  0  0  0  0  0  0  0  0  0  0  0 
    4.2593    1.2847   -1.1902 H   0  0  0  0  0  0  0  0  0  0  0  0 
   -1.0702    0.5998    2.1540 H   0  0  0  0  0  0  0  0  0  0  0  0 
   -0.5655   -0.7672    1.1258 H   0  0  0  0  0  0  0  0  0  0  0  0 
    0.0965    0.8635    0.8518 H   0  0  0  0  0  0  0  0  0  0  0  0 
   -0.4363   -0.5058    4.1534 H   0  0  0  0  0  0  0  0  0  0  0  0 
    1.2269   -1.0752    4.3864 H   0  0  0  0  0  0  0  0  0  0  0  0 
    0.1264   -1.9647    3.3018 H   0  0  0  0  0  0  0  0  0  0  0  0 
    4.8014   -0.4121    1.3260 H   0  0  0  0  0  0  0  0  0  0  0  0 
    3.8619   -0.9277   -0.0657 H   0  0  0  0  0  0  0  0  0  0  0  0 
    2.7304   -1.0056    2.6900 H   0  0  0  0  0  0  0  0  0  0  0  0 
    1.8446   -1.4175    1.2120 H   0  0  0  0  0  0  0  0  0  0  0  0 
    2.2325    0.9255    0.3748 H   0  0  0  0  0  0  0  0  0  0  0  0 
    3.8750    1.3333    2.7530 H   0  0  0  0  0  0  0  0  0  0  0  0 
    2.3600    1.8894    2.5822 H   0  0  0  0  0  0  0  0  0  0  0  0 
  1 10  1  0  0  0  0 
  1  4  1  0  0  0  0 
  2 12  1  0  0  0  0 
  2  8  1  0  0  0  0 
  3 15  1  0  0  0  0 
  3 16  1  0  0  0  0 
  4  6  1  0  0  0  0 
  4 18  1  0  0  0  0 
  5  8  1  0  0  0  0 
  5 20  1  0  0  0  0 
  6 22  1  6  0  0  0 
  6  5  1  0  0  0  0 
  6  7  1  0  0  0  0 
  7 24  1  0  0  0  0 
  7 23  1  0  0  0  0 
  8  3  1  0  0  0  0 
  9  1  1  0  0  0  0 
 11  1  1  0  0  0  0 
 13  2  1  0  0  0  0 
 14  2  1  0  0  0  0 
 17  3  1  0  0  0  0 
 19  4  1  0  0  0  0 
 21  5  1  0  0  0  0 
M  END 
>  <HBA> 
2 
 
>  <HBD> 
1 
 
>  <TPSA> 
29.26 
 
>  <cid> 
44652 
 
>  <dipole> 
1.89 
 
>  <excitation_energy_1> 
5.422 
 
>  <excitation_energy_2> 
5.792 
 
>  <excitation_energy_3> 
5.846 
 
>  <excitation_energy_4> 
5.984 
 
>  <homo_energy> 
-5.85 
 
>  <homo_lumo_gap> 
7.968 
 
>  <logP> 
0.986 
 
>  <lumo_energy> 
2.117 
 
>  <melting_point> 
30.32 
 
>  <molecular_refractivity> 
36.56 
 
>  <oscillator_strength_1> 
0.0224 
 
>  <oscillator_strength_2> 
0.0174 
 
>  <oscillator_strength_3> 
0.02 
 
>  <oscillator_strength_4> 
0.0652 
 
>  <open_babel_can_smiles> 
CC[C@@H](CN(C)C)N 
 
>  <mulliken_charges> 
24 
1   -0.437419 
2   -0.304246 
3   -0.293331 
4   -0.254987 
5   -0.118331 
6   0.019974 
7   -0.710007 
8   -0.377283 
9   0.133986 
10   0.169265 
11   0.138036 
12   0.149529 
13   0.11976 
14   0.156928 
15   0.147728 
16   0.148195 
17   0.119649 
18   0.119929 
19   0.130193 
20   0.122227 
21   0.106404 
22   0.128375 
23   0.279111 
24   0.306317 
 
>  <lowdin_charges> 
24 
1   -0.445669 
2   -0.362584 
3   -0.355985 
4   -0.276691 
5   -0.220854 
6   -0.076105 
7   -0.553511 
8   -0.186304 
9   0.145827 
10   0.161152 
11   0.146547 
12   0.151498 
13   0.122262 
14   0.153158 
15   0.149873 
16   0.149571 
17   0.120833 
18   0.135262 
19   0.142294 
20   0.140237 
21   0.119509 
22   0.136575 
23   0.246122 
24   0.256985 
 
$$$$ 
 
