PCCDB-ID:  8685 
public computational chemistry database (PCCDB) project, http://pccdb.org 
 
 31 30  0  0  0  0  0  0  0  0999 V2000 
    5.7805   -1.2629    1.1484 C   0  0  0  0  0  0  0  0  0  0  0  0 
   11.8252    0.8138    6.9599 C   0  0  0  0  0  0  0  0  0  0  0  0 
    6.6854   -2.1956    1.9633 C   0  0  0  0  0  0  0  0  0  0  0  0 
   11.7092   -0.2314    5.8458 C   0  0  0  0  0  0  0  0  0  0  0  0 
    8.1895   -1.9047    1.8275 C   0  0  0  0  0  0  0  0  0  0  0  0 
   10.9251    0.2798    4.6300 C   0  0  0  0  0  0  0  0  0  0  0  0 
    8.5983   -0.5432    2.4048 C   0  0  0  0  0  0  0  0  0  0  0  0 
   10.8117   -0.7795    3.5242 C   0  0  0  0  0  0  0  0  0  0  0  0 
   10.6169    0.2854    1.2802 C   0  0  0  0  0  0  0  0  0  0  0  0 
   10.0553   -0.3200    2.3479 N   0  0  0  0  0  0  0  0  0  0  0  0 
    9.7965    0.8270   -0.0748 S   0  0  0  0  0  0  0  0  0  0  0  0 
   12.4121    0.4939    1.4061 S   0  0  0  0  0  0  0  0  0  0  0  0 
    4.7309   -1.5658    1.2353 H   0  0  0  0  0  0  0  0  0  0  0  0 
    6.0496   -1.2828    0.0859 H   0  0  0  0  0  0  0  0  0  0  0  0 
    5.8495   -0.2224    1.4849 H   0  0  0  0  0  0  0  0  0  0  0  0 
   12.3922    0.4234    7.8122 H   0  0  0  0  0  0  0  0  0  0  0  0 
   10.8363    1.1149    7.3263 H   0  0  0  0  0  0  0  0  0  0  0  0 
   12.3359    1.7163    6.6037 H   0  0  0  0  0  0  0  0  0  0  0  0 
    6.5089   -3.2317    1.6463 H   0  0  0  0  0  0  0  0  0  0  0  0 
    6.3993   -2.1528    3.0246 H   0  0  0  0  0  0  0  0  0  0  0  0 
   11.2250   -1.1360    6.2410 H   0  0  0  0  0  0  0  0  0  0  0  0 
   12.7149   -0.5383    5.5262 H   0  0  0  0  0  0  0  0  0  0  0  0 
    8.4829   -1.9353    0.7715 H   0  0  0  0  0  0  0  0  0  0  0  0 
    8.7556   -2.6953    2.3391 H   0  0  0  0  0  0  0  0  0  0  0  0 
   11.4119    1.1736    4.2211 H   0  0  0  0  0  0  0  0  0  0  0  0 
    9.9175    0.5867    4.9425 H   0  0  0  0  0  0  0  0  0  0  0  0 
    8.3061   -0.4727    3.4594 H   0  0  0  0  0  0  0  0  0  0  0  0 
    8.1152    0.2704    1.8632 H   0  0  0  0  0  0  0  0  0  0  0  0 
   10.3004   -1.6701    3.9060 H   0  0  0  0  0  0  0  0  0  0  0  0 
   11.8051   -1.1116    3.2071 H   0  0  0  0  0  0  0  0  0  0  0  0 
   12.5019    1.0695    0.1944 H   0  0  0  0  0  0  0  0  0  0  0  0 
  1 13  1  0  0  0  0 
  1 15  1  0  0  0  0 
  1  3  1  0  0  0  0 
  2 17  1  0  0  0  0 
  2 16  1  0  0  0  0 
  3 20  1  0  0  0  0 
  4 21  1  0  0  0  0 
  4  2  1  0  0  0  0 
  5  3  1  0  0  0  0 
  5 24  1  0  0  0  0 
  5  7  1  0  0  0  0 
  6 26  1  0  0  0  0 
  6  4  1  0  0  0  0 
  7 27  1  0  0  0  0 
  8 29  1  0  0  0  0 
  8  6  1  0  0  0  0 
  9 12  1  0  0  0  0 
  9 10  1  0  0  0  0 
 10  7  1  0  0  0  0 
 10  8  1  0  0  0  0 
 11  9  2  0  0  0  0 
 14  1  1  0  0  0  0 
 18  2  1  0  0  0  0 
 19  3  1  0  0  0  0 
 22  4  1  0  0  0  0 
 23  5  1  0  0  0  0 
 25  6  1  0  0  0  0 
 28  7  1  0  0  0  0 
 30  8  1  0  0  0  0 
 31 12  1  0  0  0  0 
M  END 
>  <HBA> 
3 
 
>  <HBD> 
1 
 
>  <TPSA> 
74.13 
 
>  <cid> 
8685 
 
>  <dipole> 
4.29 
 
>  <excitation_energy_1> 
3.581 
 
>  <excitation_energy_2> 
4.546 
 
>  <excitation_energy_3> 
4.845 
 
>  <excitation_energy_4> 
4.887 
 
>  <homo_energy> 
-5.619 
 
>  <homo_lumo_gap> 
4.939 
 
>  <logP> 
3.103 
 
>  <lumo_energy> 
-0.68 
 
>  <melting_point> 
24.7 
 
>  <molecular_refractivity> 
63.99 
 
>  <oscillator_strength_1> 
0.0004 
 
>  <oscillator_strength_2> 
0.0102 
 
>  <oscillator_strength_3> 
0.1273 
 
>  <oscillator_strength_4> 
0.0284 
 
>  <open_babel_can_smiles> 
CCCCN(C(=S)S)CCCC 
 
>  <mulliken_charges> 
31 
1   -0.445251 
2   -0.443093 
3   -0.256783 
4   -0.25578 
5   -0.255932 
6   -0.252947 
7   -0.16424 
8   -0.192056 
9   -0.020687 
10   -0.322824 
11   -0.253274 
12   -0.019169 
13   0.143481 
14   0.15739 
15   0.149401 
16   0.148061 
17   0.14531 
18   0.150272 
19   0.139555 
20   0.127531 
21   0.133894 
22   0.141352 
23   0.170973 
24   0.129945 
25   0.165867 
26   0.142058 
27   0.145018 
28   0.203203 
29   0.16218 
30   0.187941 
31   0.138606 
 
>  <lowdin_charges> 
31 
1   -0.442885 
2   -0.443435 
3   -0.269611 
4   -0.272102 
5   -0.283497 
6   -0.284483 
7   -0.198592 
8   -0.204609 
9   -0.147975 
10   -0.058686 
11   -0.239624 
12   -0.027411 
13   0.149608 
14   0.153299 
15   0.147947 
16   0.153706 
17   0.148194 
18   0.15141 
19   0.145835 
20   0.135369 
21   0.140588 
22   0.143495 
23   0.159594 
24   0.141666 
25   0.157618 
26   0.144301 
27   0.145028 
28   0.179396 
29   0.156722 
30   0.167736 
31   0.151395 
 
$$$$ 
 
