PCCDB-ID:  47452 
public computational chemistry database (PCCDB) project, http://pccdb.org 
 
 26 27  0  0  0  0  0  0  0  0999 V2000 
    4.6000    2.1579    1.9441 C   0  0  0  0  0  0  0  0  0  0  0  0 
    4.9454    3.3752    1.5295 C   0  0  0  0  0  0  0  0  0  0  0  0 
    5.8219    4.7972   -2.8039 C   0  0  0  0  0  0  0  0  0  0  0  0 
    5.4375    5.8174   -3.6913 C   0  0  0  0  0  0  0  0  0  0  0  0 
    5.5946    3.7036    0.2046 C   0  0  0  0  0  0  0  0  0  0  0  0 
    4.0734    3.3117   -3.6433 C   0  0  0  0  0  0  0  0  0  0  0  0 
    2.7174    5.6241   -6.0401 C   0  0  0  0  0  0  0  0  0  0  0  0 
    5.1590    3.5646   -2.7671 C   0  0  0  0  0  0  0  0  0  0  0  0 
    4.3699    5.5514   -4.5254 C   0  0  0  0  0  0  0  0  0  0  0  0 
    3.7029    4.3269   -4.4979 C   0  0  0  0  0  0  0  0  0  0  0  0 
    5.6020    2.4781   -1.8370 C   0  0  0  0  0  0  0  0  0  0  0  0 
    5.8364    2.5211   -0.5933 N   0  0  0  0  0  0  0  0  0  0  0  0 
    5.7408    1.2513   -2.4398 O   0  0  0  0  0  0  0  0  0  0  0  0 
    3.8017    6.3682   -5.4666 O   0  0  0  0  0  0  0  0  0  0  0  0 
    2.6878    4.3320   -5.4208 O   0  0  0  0  0  0  0  0  0  0  0  0 
    4.1334    2.0021    2.9131 H   0  0  0  0  0  0  0  0  0  0  0  0 
    4.7834    1.2851    1.3255 H   0  0  0  0  0  0  0  0  0  0  0  0 
    4.7606    4.2427    2.1647 H   0  0  0  0  0  0  0  0  0  0  0  0 
    6.6673    4.9640   -2.1449 H   0  0  0  0  0  0  0  0  0  0  0  0 
    5.9568    6.7688   -3.7251 H   0  0  0  0  0  0  0  0  0  0  0  0 
    6.5613    4.1922    0.4135 H   0  0  0  0  0  0  0  0  0  0  0  0 
    4.9824    4.4651   -0.3086 H   0  0  0  0  0  0  0  0  0  0  0  0 
    3.5362    2.3695   -3.6199 H   0  0  0  0  0  0  0  0  0  0  0  0 
    2.8846    5.5095   -7.1169 H   0  0  0  0  0  0  0  0  0  0  0  0 
    1.7736    6.1460   -5.8437 H   0  0  0  0  0  0  0  0  0  0  0  0 
    5.7537    1.3839   -3.4008 H   0  0  0  0  0  0  0  0  0  0  0  0 
  1 16  1  0  0  0  0 
  2  1  2  0  0  0  0 
  2 18  1  0  0  0  0 
  3  8  1  0  0  0  0 
  3 19  1  0  0  0  0 
  4  3  2  0  0  0  0 
  5 21  1  0  0  0  0 
  5  2  1  0  0  0  0 
  6 23  1  0  0  0  0 
  6  8  2  0  0  0  0 
  7 25  1  0  0  0  0 
  7 14  1  0  0  0  0 
  7 15  1  0  0  0  0 
  8 11  1  0  0  0  0 
  9 10  2  0  0  0  0 
  9  4  1  0  0  0  0 
 10  6  1  0  0  0  0 
 11 12  2  0  0  0  0 
 12  5  1  0  0  0  0 
 13 11  1  0  0  0  0 
 14  9  1  0  0  0  0 
 15 10  1  0  0  0  0 
 17  1  1  0  0  0  0 
 20  4  1  0  0  0  0 
 22  5  1  0  0  0  0 
 24  7  1  0  0  0  0 
 26 13  1  0  0  0  0 
M  END 
>  <HBA> 
4 
 
>  <HBD> 
1 
 
>  <TPSA> 
47.56 
 
>  <cid> 
47452 
 
>  <dipole> 
5.0 
 
>  <excitation_energy_1> 
4.585 
 
>  <excitation_energy_2> 
4.73 
 
>  <excitation_energy_3> 
4.93 
 
>  <excitation_energy_4> 
4.979 
 
>  <homo_energy> 
-6.033 
 
>  <homo_lumo_gap> 
5.249 
 
>  <logP> 
1.722 
 
>  <lumo_energy> 
-0.784 
 
>  <melting_point> 
78.92 
 
>  <molecular_refractivity> 
54.64 
 
>  <oscillator_strength_1> 
0.1285 
 
>  <oscillator_strength_2> 
0.0085 
 
>  <oscillator_strength_3> 
0.0429 
 
>  <oscillator_strength_4> 
0.0203 
 
>  <open_babel_can_smiles> 
C=CC/N=C(\c1ccc2c(c1)OCO2)/O 
 
>  <mulliken_charges> 
26 
1   -0.32347 
2   -0.075633 
3   -0.174406 
4   -0.185645 
5   -0.175974 
6   -0.241671 
7   0.191142 
8   0.031402 
9   0.340886 
10   0.340386 
11   0.419327 
12   -0.410395 
13   -0.581564 
14   -0.526406 
15   -0.530089 
16   0.127514 
17   0.162442 
18   0.116608 
19   0.153267 
20   0.154935 
21   0.148447 
22   0.136653 
23   0.165206 
24   0.167047 
25   0.167324 
26   0.402667 
 
>  <lowdin_charges> 
26 
1   -0.339548 
2   -0.162839 
3   -0.15593 
4   -0.180058 
5   -0.200315 
6   -0.192433 
7   0.022996 
8   -0.052186 
9   0.078384 
10   0.075063 
11   0.125009 
12   -0.189533 
13   -0.367948 
14   -0.197519 
15   -0.201596 
16   0.153609 
17   0.17019 
18   0.147707 
19   0.171345 
20   0.175119 
21   0.149901 
22   0.139234 
23   0.178567 
24   0.150086 
25   0.151839 
26   0.350855 
 
$$$$ 
 
