PCCDB-ID:  14347 
public computational chemistry database (PCCDB) project, http://pccdb.org 
 
 25 26  0  0  0  0  0  0  0  0999 V2000 
   -2.5492    1.6989    0.3189 C   0  0  0  0  0  0  0  0  0  0  0  0 
   -1.9085    2.8903    0.6619 C   0  0  0  0  0  0  0  0  0  0  0  0 
   -1.8025    0.6201   -0.1647 C   0  0  0  0  0  0  0  0  0  0  0  0 
   -0.5274    3.0135    0.5029 C   0  0  0  0  0  0  0  0  0  0  0  0 
   -0.4226    0.7350   -0.3039 C   0  0  0  0  0  0  0  0  0  0  0  0 
    3.7887    3.3552   -0.0760 C   0  0  0  0  0  0  0  0  0  0  0  0 
    1.8411    4.3256   -1.1203 C   0  0  0  0  0  0  0  0  0  0  0  0 
    4.5230    4.4954   -0.3717 C   0  0  0  0  0  0  0  0  0  0  0  0 
    2.5709    5.4648   -1.4388 C   0  0  0  0  0  0  0  0  0  0  0  0 
    0.2285    1.9383    0.0109 C   0  0  0  0  0  0  0  0  0  0  0  0 
    2.4322    3.2547   -0.4267 C   0  0  0  0  0  0  0  0  0  0  0  0 
    3.9141    5.5575   -1.0557 C   0  0  0  0  0  0  0  0  0  0  0  0 
    1.7254    1.9761   -0.1139 C   0  0  0  0  0  0  0  0  0  0  0  0 
    4.5814    6.7001   -1.3801 O   0  0  0  0  0  0  0  0  0  0  0  0 
    2.3681    0.9414    0.0427 O   0  0  0  0  0  0  0  0  0  0  0  0 
   -3.6260    1.6075    0.4346 H   0  0  0  0  0  0  0  0  0  0  0  0 
   -2.4827    3.7243    1.0564 H   0  0  0  0  0  0  0  0  0  0  0  0 
   -2.2977   -0.3116   -0.4247 H   0  0  0  0  0  0  0  0  0  0  0  0 
   -0.0338    3.9365    0.7898 H   0  0  0  0  0  0  0  0  0  0  0  0 
    0.1758   -0.0996   -0.6548 H   0  0  0  0  0  0  0  0  0  0  0  0 
    4.2525    2.5171    0.4337 H   0  0  0  0  0  0  0  0  0  0  0  0 
    0.8067    4.2574   -1.4405 H   0  0  0  0  0  0  0  0  0  0  0  0 
    5.5700    4.5652   -0.0815 H   0  0  0  0  0  0  0  0  0  0  0  0 
    2.1230    6.2880   -1.9860 H   0  0  0  0  0  0  0  0  0  0  0  0 
    5.4986    6.6319   -1.0713 H   0  0  0  0  0  0  0  0  0  0  0  0 
  1 16  1  0  0  0  0 
  1  2  2  0  0  0  0 
  2 17  1  0  0  0  0 
  3  1  1  0  0  0  0 
  4  2  1  0  0  0  0 
  4 19  1  0  0  0  0 
  5  3  2  0  0  0  0 
  5 10  1  0  0  0  0 
  6 21  1  0  0  0  0 
  7 11  1  0  0  0  0 
  8 23  1  0  0  0  0 
  8  6  1  0  0  0  0 
  9  7  2  0  0  0  0 
  9 12  1  0  0  0  0 
 10  4  2  0  0  0  0 
 11 13  1  0  0  0  0 
 11  6  2  0  0  0  0 
 12  8  2  0  0  0  0 
 13 10  1  0  0  0  0 
 13 15  2  0  0  0  0 
 14 25  1  0  0  0  0 
 14 12  1  0  0  0  0 
 18  3  1  0  0  0  0 
 20  5  1  0  0  0  0 
 22  7  1  0  0  0  0 
 24  9  1  0  0  0  0 
M  END 
>  <HBA> 
2 
 
>  <HBD> 
1 
 
>  <TPSA> 
37.3 
 
>  <cid> 
14347 
 
>  <dipole> 
2.35 
 
>  <excitation_energy_1> 
3.62 
 
>  <excitation_energy_2> 
4.293 
 
>  <excitation_energy_3> 
4.588 
 
>  <excitation_energy_4> 
4.696 
 
>  <homo_energy> 
-6.27 
 
>  <homo_lumo_gap> 
4.727 
 
>  <logP> 
2.623 
 
>  <lumo_energy> 
-1.543 
 
>  <melting_point> 
104.73 
 
>  <molecular_refractivity> 
58.34 
 
>  <oscillator_strength_1> 
0.0022 
 
>  <oscillator_strength_2> 
0.2877 
 
>  <oscillator_strength_3> 
0.0107 
 
>  <oscillator_strength_4> 
0.0016 
 
>  <open_babel_can_smiles> 
Oc1ccc(cc1)C(=O)c1ccccc1 
 
>  <mulliken_charges> 
25 
1   -0.119852 
2   -0.137111 
3   -0.135544 
4   -0.177315 
5   -0.150262 
6   -0.157894 
7   -0.184468 
8   -0.198349 
9   -0.167102 
10   0.072747 
11   0.069321 
12   0.36084 
13   0.317482 
14   -0.633278 
15   -0.473853 
16   0.135554 
17   0.134993 
18   0.136694 
19   0.147497 
20   0.157723 
21   0.163711 
22   0.152409 
23   0.127469 
24   0.146404 
25   0.412184 
 
>  <lowdin_charges> 
25 
1   -0.141239 
2   -0.159883 
3   -0.155719 
4   -0.15419 
5   -0.132186 
6   -0.117074 
7   -0.136288 
8   -0.210805 
9   -0.189564 
10   -0.041496 
11   -0.066375 
12   0.114842 
13   0.156087 
14   -0.364542 
15   -0.256856 
16   0.158532 
17   0.161179 
18   0.161261 
19   0.16612 
20   0.174882 
21   0.178248 
22   0.168156 
23   0.155639 
24   0.171423 
25   0.359847 
 
$$$$ 
 
