PCCDB-ID:  20725 
public computational chemistry database (PCCDB) project, http://pccdb.org 
 
 28 29  0  0  0  0  0  0  0  0999 V2000 
    0.8861    0.2603   -0.0257 C   0  0  0  0  0  0  0  0  0  0  0  0 
    6.9411   -4.2892   -0.2845 C   0  0  0  0  0  0  0  0  0  0  0  0 
    2.8476   -5.4626    0.4855 C   0  0  0  0  0  0  0  0  0  0  0  0 
    5.1340    0.5202    0.3322 C   0  0  0  0  0  0  0  0  0  0  0  0 
    4.2796    1.5932    0.4108 C   0  0  0  0  0  0  0  0  0  0  0  0 
    5.4021   -1.9365    0.0183 C   0  0  0  0  0  0  0  0  0  0  0  0 
    2.6168   -2.1746   -0.2135 C   0  0  0  0  0  0  0  0  0  0  0  0 
    2.3906    0.3076    0.0936 C   0  0  0  0  0  0  0  0  0  0  0  0 
    4.5935   -0.7728    0.1175 C   0  0  0  0  0  0  0  0  0  0  0  0 
    3.1768   -0.8854   -0.0073 C   0  0  0  0  0  0  0  0  0  0  0  0 
    4.8331   -3.1755   -0.1951 C   0  0  0  0  0  0  0  0  0  0  0  0 
    3.4067   -3.2947   -0.3050 C   0  0  0  0  0  0  0  0  0  0  0  0 
    2.9288    1.5002    0.2958 N   0  0  0  0  0  0  0  0  0  0  0  0 
    5.5220   -4.3406   -0.3334 O   0  0  0  0  0  0  0  0  0  0  0  0 
    2.8274   -4.5074   -0.5787 O   0  0  0  0  0  0  0  0  0  0  0  0 
    0.4376   -0.3732    0.7500 H   0  0  0  0  0  0  0  0  0  0  0  0 
    0.5681   -0.1425   -0.9957 H   0  0  0  0  0  0  0  0  0  0  0  0 
    0.4913    1.2726    0.0781 H   0  0  0  0  0  0  0  0  0  0  0  0 
    7.2970   -3.9288    0.6893 H   0  0  0  0  0  0  0  0  0  0  0  0 
    7.3427   -3.6473   -1.0785 H   0  0  0  0  0  0  0  0  0  0  0  0 
    7.2809   -5.3147   -0.4386 H   0  0  0  0  0  0  0  0  0  0  0  0 
    2.3422   -6.3514    0.1014 H   0  0  0  0  0  0  0  0  0  0  0  0 
    2.3003   -5.0821    1.3584 H   0  0  0  0  0  0  0  0  0  0  0  0 
    3.8706   -5.7197    0.7766 H   0  0  0  0  0  0  0  0  0  0  0  0 
    6.2081    0.6525    0.4319 H   0  0  0  0  0  0  0  0  0  0  0  0 
    4.6642    2.5980    0.5744 H   0  0  0  0  0  0  0  0  0  0  0  0 
    6.4774   -1.8255    0.1044 H   0  0  0  0  0  0  0  0  0  0  0  0 
    1.5455   -2.3045   -0.3199 H   0  0  0  0  0  0  0  0  0  0  0  0 
  1 18  1  0  0  0  0 
  1  8  1  0  0  0  0 
  1 16  1  0  0  0  0 
  2 19  1  0  0  0  0 
  3 24  1  0  0  0  0 
  3 23  1  0  0  0  0 
  4  5  1  0  0  0  0 
  4 25  1  0  0  0  0 
  5 26  1  0  0  0  0 
  6 27  1  0  0  0  0 
  6  9  1  0  0  0  0 
  7 10  1  0  0  0  0 
  8 13  1  0  0  0  0 
  9  4  2  0  0  0  0 
 10  8  2  0  0  0  0 
 10  9  1  0  0  0  0 
 11  6  2  0  0  0  0 
 12  7  2  0  0  0  0 
 12 11  1  0  0  0  0 
 13  5  2  0  0  0  0 
 14  2  1  0  0  0  0 
 14 11  1  0  0  0  0 
 15 12  1  0  0  0  0 
 15  3  1  0  0  0  0 
 17  1  1  0  0  0  0 
 20  2  1  0  0  0  0 
 21  2  1  0  0  0  0 
 22  3  1  0  0  0  0 
 28  7  1  0  0  0  0 
M  END 
>  <HBA> 
3 
 
>  <HBD> 
0 
 
>  <TPSA> 
31.35 
 
>  <cid> 
20725 
 
>  <dipole> 
3.84 
 
>  <excitation_energy_1> 
4.256 
 
>  <excitation_energy_2> 
4.39 
 
>  <excitation_energy_3> 
4.409 
 
>  <excitation_energy_4> 
5.142 
 
>  <homo_energy> 
-5.861 
 
>  <homo_lumo_gap> 
4.8 
 
>  <logP> 
2.56 
 
>  <lumo_energy> 
-1.061 
 
>  <melting_point> 
80.21 
 
>  <molecular_refractivity> 
59.69 
 
>  <oscillator_strength_1> 
0.0555 
 
>  <oscillator_strength_2> 
0.0171 
 
>  <oscillator_strength_3> 
0.0013 
 
>  <oscillator_strength_4> 
0.0069 
 
>  <open_babel_can_smiles> 
COc1cc2c(C)nccc2cc1OC 
 
>  <mulliken_charges> 
28 
1   -0.51997 
2   -0.217868 
3   -0.212009 
4   -0.207329 
5   0.022442 
6   -0.287139 
7   -0.270627 
8   0.257571 
9   0.164691 
10   0.09313 
11   0.359493 
12   0.336013 
13   -0.482202 
14   -0.50607 
15   -0.520105 
16   0.158249 
17   0.161176 
18   0.178637 
19   0.156308 
20   0.160014 
21   0.174641 
22   0.162074 
23   0.141015 
24   0.161164 
25   0.124729 
26   0.133475 
27   0.135852 
28   0.142644 
 
>  <lowdin_charges> 
28 
1   -0.451707 
2   -0.27535 
3   -0.275456 
4   -0.184979 
5   -0.100058 
6   -0.219882 
7   -0.169891 
8   0.059298 
9   0.017227 
10   -0.036018 
11   0.087547 
12   0.076629 
13   -0.169119 
14   -0.186665 
15   -0.220488 
16   0.160876 
17   0.160981 
18   0.172167 
19   0.147705 
20   0.151582 
21   0.164668 
22   0.158605 
23   0.140013 
24   0.14862 
25   0.156757 
26   0.153929 
27   0.162428 
28   0.170579 
 
$$$$ 
 
