PCCDB-ID:  8196 
public computational chemistry database (PCCDB) project, http://pccdb.org 
 
 30 29  0  0  0  0  0  0  0  0999 V2000 
    3.2149    0.7844    3.1646 C   0  0  0  0  0  0  0  0  0  0  0  0 
    3.8645    1.5290    1.9917 C   0  0  0  0  0  0  0  0  0  0  0  0 
    5.0347    0.7910    1.3189 C   0  0  0  0  0  0  0  0  0  0  0  0 
    4.6482   -0.4277    0.4721 C   0  0  0  0  0  0  0  0  0  0  0  0 
    5.0944   -2.2978    1.8922 C   0  0  0  0  0  0  0  0  0  0  0  0 
    4.3943   -3.5480    2.4066 C   0  0  0  0  0  0  0  0  0  0  0  0 
    4.8617   -5.4712    3.7455 C   0  0  0  0  0  0  0  0  0  0  0  0 
    4.7026   -6.6427    2.7687 C   0  0  0  0  0  0  0  0  0  0  0  0 
    5.3459   -8.5373    4.6213 C   0  0  0  0  0  0  0  0  0  0  0  0 
    6.2097   -8.8171    5.3536 N   0  0  0  0  0  0  0  0  0  0  0  0 
    4.1257   -1.5383    1.1962 O   0  0  0  0  0  0  0  0  0  0  0  0 
    5.3673   -4.3249    3.0909 O   0  0  0  0  0  0  0  0  0  0  0  0 
    4.0532   -8.1779    3.5729 S   0  0  0  0  0  0  0  0  0  0  0  0 
    2.4135    1.3842    3.6116 H   0  0  0  0  0  0  0  0  0  0  0  0 
    3.9511    0.5783    3.9522 H   0  0  0  0  0  0  0  0  0  0  0  0 
    2.7925   -0.1716    2.8438 H   0  0  0  0  0  0  0  0  0  0  0  0 
    4.2307    2.5018    2.3467 H   0  0  0  0  0  0  0  0  0  0  0  0 
    3.1024    1.7528    1.2309 H   0  0  0  0  0  0  0  0  0  0  0  0 
    5.7791    0.5022    2.0741 H   0  0  0  0  0  0  0  0  0  0  0  0 
    5.5505    1.4870    0.6418 H   0  0  0  0  0  0  0  0  0  0  0  0 
    5.5178   -0.7575   -0.1205 H   0  0  0  0  0  0  0  0  0  0  0  0 
    3.8546   -0.1488   -0.2312 H   0  0  0  0  0  0  0  0  0  0  0  0 
    5.9231   -2.5863    1.2254 H   0  0  0  0  0  0  0  0  0  0  0  0 
    5.5250   -1.7472    2.7411 H   0  0  0  0  0  0  0  0  0  0  0  0 
    3.9541   -4.0906    1.5568 H   0  0  0  0  0  0  0  0  0  0  0  0 
    3.5753   -3.2660    3.0861 H   0  0  0  0  0  0  0  0  0  0  0  0 
    5.5932   -5.7347    4.5156 H   0  0  0  0  0  0  0  0  0  0  0  0 
    3.9028   -5.2575    4.2408 H   0  0  0  0  0  0  0  0  0  0  0  0 
    5.6494   -6.8720    2.2745 H   0  0  0  0  0  0  0  0  0  0  0  0 
    3.9541   -6.4299    1.9989 H   0  0  0  0  0  0  0  0  0  0  0  0 
  1 14  1  0  0  0  0 
  1 15  1  0  0  0  0 
  2 17  1  0  0  0  0 
  2  1  1  0  0  0  0 
  3  2  1  0  0  0  0 
  3 19  1  0  0  0  0 
  4 11  1  0  0  0  0 
  4  3  1  0  0  0  0 
  5  6  1  0  0  0  0 
  5 24  1  0  0  0  0 
  6 26  1  0  0  0  0 
  6 12  1  0  0  0  0 
  7 28  1  0  0  0  0 
  7 27  1  0  0  0  0 
  8 13  1  0  0  0  0 
  8  7  1  0  0  0  0 
  9 10  3  0  0  0  0 
 11  5  1  0  0  0  0 
 12  7  1  0  0  0  0 
 13  9  1  0  0  0  0 
 16  1  1  0  0  0  0 
 18  2  1  0  0  0  0 
 20  3  1  0  0  0  0 
 21  4  1  0  0  0  0 
 22  4  1  0  0  0  0 
 23  5  1  0  0  0  0 
 25  6  1  0  0  0  0 
 29  8  1  0  0  0  0 
 30  8  1  0  0  0  0 
M  END 
>  <HBA> 
4 
 
>  <HBD> 
0 
 
>  <TPSA> 
67.55 
 
>  <cid> 
8196 
 
>  <dipole> 
4.45 
 
>  <excitation_energy_1> 
4.954 
 
>  <excitation_energy_2> 
5.658 
 
>  <excitation_energy_3> 
5.929 
 
>  <excitation_energy_4> 
6.181 
 
>  <homo_energy> 
-7.007 
 
>  <homo_lumo_gap> 
6.207 
 
>  <logP> 
2.034 
 
>  <lumo_energy> 
-0.8 
 
>  <melting_point> 
-3.58 
 
>  <molecular_refractivity> 
54.89 
 
>  <oscillator_strength_1> 
0.0012 
 
>  <oscillator_strength_2> 
0.0068 
 
>  <oscillator_strength_3> 
0.043 
 
>  <oscillator_strength_4> 
0.0056 
 
>  <open_babel_can_smiles> 
CCCCOCCOCCSC#N 
 
>  <mulliken_charges> 
30 
1   -0.445868 
2   -0.245715 
3   -0.277285 
4   -0.02013 
5   -0.026798 
6   -0.039546 
7   -0.018361 
8   -0.456474 
9   0.12576 
10   -0.383564 
11   -0.478229 
12   -0.475535 
13   0.221387 
14   0.138054 
15   0.135243 
16   0.165089 
17   0.133348 
18   0.130209 
19   0.138614 
20   0.133676 
21   0.121615 
22   0.142624 
23   0.132597 
24   0.14102 
25   0.133607 
26   0.141462 
27   0.180356 
28   0.144528 
29   0.213242 
30   0.195076 
 
>  <lowdin_charges> 
30 
1   -0.453378 
2   -0.271627 
3   -0.29593 
4   -0.132881 
5   -0.137599 
6   -0.138148 
7   -0.137201 
8   -0.379956 
9   -0.170225 
10   -0.116824 
11   -0.272142 
12   -0.263107 
13   0.254876 
14   0.148369 
15   0.144048 
16   0.156268 
17   0.142104 
18   0.139734 
19   0.144675 
20   0.150664 
21   0.130338 
22   0.147419 
23   0.135103 
24   0.137262 
25   0.133378 
26   0.138745 
27   0.165547 
28   0.141766 
29   0.181164 
30   0.177561 
 
$$$$ 
 
