PCCDB-ID:  50359 
public computational chemistry database (PCCDB) project, http://pccdb.org 
 
 30 29  0  0  0  0  0  0  0  0999 V2000 
    0.8394   -1.7627    0.1893 C   0  0  0  0  0  0  0  0  0  0  0  0 
    5.1557    0.4731   -1.1940 C   0  0  0  0  0  0  0  0  0  0  0  0 
    5.2880   -1.0564    0.8033 C   0  0  0  0  0  0  0  0  0  0  0  0 
    2.3649   -1.9017    0.2536 C   0  0  0  0  0  0  0  0  0  0  0  0 
    3.0820   -0.7482   -0.4598 C   0  0  0  0  0  0  0  0  0  0  0  0 
    2.3125   -3.1287   -4.9055 C   0  0  0  0  0  0  0  0  0  0  0  0 
    2.8718   -3.0465   -3.4826 C   0  0  0  0  0  0  0  0  0  0  0  0 
    4.6200   -0.8175   -0.5614 C   0  0  0  0  0  0  0  0  0  0  0  0 
    1.0574   -3.8892   -4.8841 N   0  0  0  0  0  0  0  0  0  0  0  0 
    4.4255   -2.0425   -3.4944 S   0  0  0  0  0  0  0  0  0  0  0  0 
    5.2018   -2.3002   -1.5816 S   0  0  0  0  0  0  0  0  0  0  0  0 
    0.3435   -2.5781    0.7278 H   0  0  0  0  0  0  0  0  0  0  0  0 
    0.4801   -1.7829   -0.8471 H   0  0  0  0  0  0  0  0  0  0  0  0 
    0.5054   -0.8176    0.6355 H   0  0  0  0  0  0  0  0  0  0  0  0 
    4.8727    1.3374   -0.5786 H   0  0  0  0  0  0  0  0  0  0  0  0 
    4.7419    0.6234   -2.1965 H   0  0  0  0  0  0  0  0  0  0  0  0 
    6.2472    0.4501   -1.2734 H   0  0  0  0  0  0  0  0  0  0  0  0 
    4.9964   -0.2550    1.4942 H   0  0  0  0  0  0  0  0  0  0  0  0 
    6.3796   -1.0431    0.7157 H   0  0  0  0  0  0  0  0  0  0  0  0 
    4.9926   -2.0104    1.2501 H   0  0  0  0  0  0  0  0  0  0  0  0 
    2.6673   -2.8567   -0.1934 H   0  0  0  0  0  0  0  0  0  0  0  0 
    2.6770   -1.9412    1.3050 H   0  0  0  0  0  0  0  0  0  0  0  0 
    2.8375    0.1923    0.0582 H   0  0  0  0  0  0  0  0  0  0  0  0 
    2.6796   -0.6359   -1.4758 H   0  0  0  0  0  0  0  0  0  0  0  0 
    3.0839   -3.5406   -5.5789 H   0  0  0  0  0  0  0  0  0  0  0  0 
    2.0835   -2.1180   -5.2638 H   0  0  0  0  0  0  0  0  0  0  0  0 
    3.1146   -4.0446   -3.1038 H   0  0  0  0  0  0  0  0  0  0  0  0 
    2.1305   -2.5926   -2.8212 H   0  0  0  0  0  0  0  0  0  0  0  0 
    1.2574   -4.8765   -4.7285 H   0  0  0  0  0  0  0  0  0  0  0  0 
    0.6081   -3.8335   -5.7965 H   0  0  0  0  0  0  0  0  0  0  0  0 
  1  4  1  0  0  0  0 
  1 14  1  0  0  0  0 
  1 12  1  0  0  0  0 
  2 15  1  0  0  0  0 
  2  8  1  0  0  0  0 
  3 20  1  0  0  0  0 
  3 18  1  0  0  0  0 
  4 22  1  0  0  0  0 
  5 23  1  0  0  0  0 
  5  4  1  0  0  0  0 
  6  9  1  0  0  0  0 
  6  7  1  0  0  0  0 
  7 27  1  0  0  0  0 
  7 28  1  0  0  0  0 
  8  5  1  0  0  0  0 
  8  3  1  0  0  0  0 
  9 29  1  0  0  0  0 
 10  7  1  0  0  0  0 
 10 11  1  0  0  0  0 
 11  8  1  0  0  0  0 
 13  1  1  0  0  0  0 
 16  2  1  0  0  0  0 
 17  2  1  0  0  0  0 
 19  3  1  0  0  0  0 
 21  4  1  0  0  0  0 
 24  5  1  0  0  0  0 
 25  6  1  0  0  0  0 
 26  6  1  0  0  0  0 
 30  9  1  0  0  0  0 
M  END 
>  <HBA> 
3 
 
>  <HBD> 
1 
 
>  <TPSA> 
76.62 
 
>  <cid> 
50359 
 
>  <dipole> 
1.43 
 
>  <excitation_energy_1> 
4.451 
 
>  <excitation_energy_2> 
4.679 
 
>  <excitation_energy_3> 
5.407 
 
>  <excitation_energy_4> 
5.585 
 
>  <homo_energy> 
-6.144 
 
>  <homo_lumo_gap> 
5.714 
 
>  <logP> 
3.606 
 
>  <lumo_energy> 
-0.43 
 
>  <melting_point> 
55.32 
 
>  <molecular_refractivity> 
58.5 
 
>  <oscillator_strength_1> 
0.0015 
 
>  <oscillator_strength_2> 
0.0055 
 
>  <oscillator_strength_3> 
0.0123 
 
>  <oscillator_strength_4> 
0.0028 
 
>  <open_babel_can_smiles> 
CCCC(SSCCN)(C)C 
 
>  <mulliken_charges> 
30 
1   -0.449682 
2   -0.440919 
3   -0.460162 
4   -0.259499 
5   -0.247602 
6   -0.150581 
7   -0.408003 
8   -0.071571 
9   -0.714697 
10   -0.003635 
11   -0.012798 
12   0.144195 
13   0.14967 
14   0.140389 
15   0.141801 
16   0.170001 
17   0.156014 
18   0.153154 
19   0.162708 
20   0.166214 
21   0.154082 
22   0.133904 
23   0.132948 
24   0.147872 
25   0.138205 
26   0.15691 
27   0.176179 
28   0.194649 
29   0.297481 
30   0.302771 
 
>  <lowdin_charges> 
30 
1   -0.444632 
2   -0.444737 
3   -0.446743 
4   -0.278715 
5   -0.278904 
6   -0.208971 
7   -0.383559 
8   -0.072759 
9   -0.551962 
10   0.015855 
11   0.00476 
12   0.151897 
13   0.147117 
14   0.145825 
15   0.14932 
16   0.16156 
17   0.155387 
18   0.157995 
19   0.15864 
20   0.16046 
21   0.149751 
22   0.140015 
23   0.143761 
24   0.149185 
25   0.131427 
26   0.150048 
27   0.160169 
28   0.167085 
29   0.252742 
30   0.25798 
 
$$$$ 
 
