PCCDB-ID:  70120 
public computational chemistry database (PCCDB) project, http://pccdb.org 
 
 14 14  0  0  0  0  0  0  0  0999 V2000 
   -0.6805    1.2311    0.0479 C   0  0  0  0  0  0  0  0  0  0  0  0 
   -1.3567    0.0012    0.0666 C   0  0  0  0  0  0  0  0  0  0  0  0 
    0.7137    1.1577    0.0003 C   0  0  0  0  0  0  0  0  0  0  0  0 
    0.6374   -1.0797   -0.0043 C   0  0  0  0  0  0  0  0  0  0  0  0 
   -2.7223   -0.0773    0.1569 N   0  0  0  0  0  0  0  0  0  0  0  0 
   -0.6956   -1.1701    0.0351 N   0  0  0  0  0  0  0  0  0  0  0  0 
    1.3936    0.0127   -0.0272 N   0  0  0  0  0  0  0  0  0  0  0  0 
    1.4920    2.2637   -0.0230 O   0  0  0  0  0  0  0  0  0  0  0  0 
    1.3108   -2.2447   -0.0303 O   0  0  0  0  0  0  0  0  0  0  0  0 
   -1.2135    2.1763    0.0824 H   0  0  0  0  0  0  0  0  0  0  0  0 
   -3.2697    0.7220   -0.1269 H   0  0  0  0  0  0  0  0  0  0  0  0 
   -3.1193   -0.9821   -0.0568 H   0  0  0  0  0  0  0  0  0  0  0  0 
    0.9230    3.0491    0.0051 H   0  0  0  0  0  0  0  0  0  0  0  0 
    0.6328   -2.9423   -0.0057 H   0  0  0  0  0  0  0  0  0  0  0  0 
  1  2  2  0  0  0  0 
  1 10  1  0  0  0  0 
  2  5  1  0  0  0  0 
  3  1  1  0  0  0  0 
  4  6  2  0  0  0  0 
  6  2  1  0  0  0  0 
  7  4  2  0  0  0  0 
  7  3  2  0  0  0  0 
  8  3  1  0  0  0  0 
  8 13  1  0  0  0  0 
  9 14  1  0  0  0  0 
  9  4  1  0  0  0  0 
 11  5  1  0  0  0  0 
 12  5  1  0  0  0  0 
M  END 
>  <HBA> 
3 
 
>  <HBD> 
3 
 
>  <TPSA> 
91.74 
 
>  <cid> 
70120 
 
>  <dipole> 
5.6 
 
>  <excitation_energy_1> 
5.305 
 
>  <excitation_energy_2> 
5.358 
 
>  <excitation_energy_3> 
5.628 
 
>  <excitation_energy_4> 
5.689 
 
>  <homo_energy> 
-6.278 
 
>  <homo_lumo_gap> 
6.299 
 
>  <logP> 
-0.773 
 
>  <lumo_energy> 
0.022 
 
>  <melting_point> 
217.91 
 
>  <molecular_refractivity> 
32.09 
 
>  <oscillator_strength_1> 
0.004 
 
>  <oscillator_strength_2> 
0.0486 
 
>  <oscillator_strength_3> 
0.0024 
 
>  <oscillator_strength_4> 
0.0186 
 
>  <open_babel_can_smiles> 
NC1=CC(=[N]=[C](=N1)O)O 
 
>  <mulliken_charges> 
14 
1   -0.272207 
2   0.522053 
3   0.521308 
4   0.64385 
5   -0.778581 
6   -0.577835 
7   -0.48985 
8   -0.595928 
9   -0.587384 
10   0.117677 
11   0.332253 
12   0.341024 
13   0.410464 
14   0.413157 
 
>  <lowdin_charges> 
14 
1   -0.322128 
2   0.136592 
3   0.164235 
4   0.169444 
5   -0.461524 
6   -0.264921 
7   -0.201115 
8   -0.341314 
9   -0.338593 
10   0.158237 
11   0.286336 
12   0.291476 
13   0.360285 
14   0.362991 
 
$$$$ 
 
