PCCDB-ID:  23821 
public computational chemistry database (PCCDB) project, http://pccdb.org 
 
 28 28  0  0  0  0  0  0  0  0999 V2000 
    3.5079    1.2851    0.1920 C   0  0  0  0  0  0  0  0  0  0  0  0 
    1.2851    1.0113   -0.9594 C   0  0  0  0  0  0  0  0  0  0  0  0 
    0.2801   -3.6885   -0.2773 C   0  0  0  0  0  0  0  0  0  0  0  0 
    4.6087   -3.0853    1.8219 C   0  0  0  0  0  0  0  0  0  0  0  0 
    2.3721    0.3038   -0.1361 C   0  0  0  0  0  0  0  0  0  0  0  0 
    2.9128   -0.9798   -0.8828 C   0  0  0  0  0  0  0  0  0  0  0  0 
    1.7687   -1.9298   -1.1810 C   0  0  0  0  0  0  0  0  0  0  0  0 
    4.0325   -1.6195   -0.0852 C   0  0  0  0  0  0  0  0  0  0  0  0 
    2.3793   -3.1986    0.8511 C   0  0  0  0  0  0  0  0  0  0  0  0 
    1.4944   -2.8674   -0.1824 N   0  0  0  0  0  0  0  0  0  0  0  0 
    3.6300   -2.5697    0.8558 N   0  0  0  0  0  0  0  0  0  0  0  0 
    1.0826   -1.8372   -2.1827 O   0  0  0  0  0  0  0  0  0  0  0  0 
    5.1959   -1.2768   -0.1939 O   0  0  0  0  0  0  0  0  0  0  0  0 
    2.0915   -4.0400    1.6826 O   0  0  0  0  0  0  0  0  0  0  0  0 
    3.0930    2.1690    0.6887 H   0  0  0  0  0  0  0  0  0  0  0  0 
    4.0123    1.6181   -0.7225 H   0  0  0  0  0  0  0  0  0  0  0  0 
    4.2667    0.8516    0.8474 H   0  0  0  0  0  0  0  0  0  0  0  0 
    0.9167    1.8824   -0.4058 H   0  0  0  0  0  0  0  0  0  0  0  0 
    0.4340    0.3647   -1.1837 H   0  0  0  0  0  0  0  0  0  0  0  0 
    1.6905    1.3677   -1.9139 H   0  0  0  0  0  0  0  0  0  0  0  0 
   -0.3250   -3.2820   -1.0850 H   0  0  0  0  0  0  0  0  0  0  0  0 
   -0.2579   -3.6522    0.6712 H   0  0  0  0  0  0  0  0  0  0  0  0 
    0.5390   -4.7286   -0.4924 H   0  0  0  0  0  0  0  0  0  0  0  0 
    5.4944   -2.4572    1.7535 H   0  0  0  0  0  0  0  0  0  0  0  0 
    4.8689   -4.1213    1.5881 H   0  0  0  0  0  0  0  0  0  0  0  0 
    4.1804   -3.0510    2.8246 H   0  0  0  0  0  0  0  0  0  0  0  0 
    1.9256   -0.0381    0.8085 H   0  0  0  0  0  0  0  0  0  0  0  0 
    3.3338   -0.6620   -1.8399 H   0  0  0  0  0  0  0  0  0  0  0  0 
  1 15  1  0  0  0  0 
  1 17  1  0  0  0  0 
  2 18  1  0  0  0  0 
  2  5  1  0  0  0  0 
  3 10  1  0  0  0  0 
  3 22  1  0  0  0  0 
  4 26  1  0  0  0  0 
  5  1  1  0  0  0  0 
  5 27  1  0  0  0  0 
  6  5  1  0  0  0  0 
  6  8  1  0  0  0  0 
  7  6  1  0  0  0  0 
  7 10  1  0  0  0  0 
  8 11  1  0  0  0  0 
  9 11  1  0  0  0  0 
  9 14  2  0  0  0  0 
 10  9  1  0  0  0  0 
 11  4  1  0  0  0  0 
 12  7  2  0  0  0  0 
 13  8  2  0  0  0  0 
 16  1  1  0  0  0  0 
 19  2  1  0  0  0  0 
 20  2  1  0  0  0  0 
 21  3  1  0  0  0  0 
 23  3  1  0  0  0  0 
 24  4  1  0  0  0  0 
 25  4  1  0  0  0  0 
 28  6  1  0  0  0  0 
M  END 
>  <HBA> 
5 
 
>  <HBD> 
0 
 
>  <TPSA> 
57.69 
 
>  <cid> 
23821 
 
>  <dipole> 
1.55 
 
>  <excitation_energy_1> 
4.515 
 
>  <excitation_energy_2> 
5.176 
 
>  <excitation_energy_3> 
5.405 
 
>  <excitation_energy_4> 
5.674 
 
>  <homo_energy> 
-7.105 
 
>  <homo_lumo_gap> 
5.834 
 
>  <logP> 
0.185 
 
>  <lumo_energy> 
-1.271 
 
>  <melting_point> 
73.8 
 
>  <molecular_refractivity> 
57.87 
 
>  <oscillator_strength_1> 
0.0007 
 
>  <oscillator_strength_2> 
0.0134 
 
>  <oscillator_strength_3> 
0.0666 
 
>  <oscillator_strength_4> 
0.0002 
 
>  <open_babel_can_smiles> 
CC(C1C(=O)N(C)C(=O)N(C1=O)C)C 
 
>  <mulliken_charges> 
28 
1   -0.446392 
2   -0.448454 
3   -0.320059 
4   -0.319794 
5   -0.093664 
6   -0.272122 
7   0.602904 
8   0.603906 
9   0.786936 
10   -0.516582 
11   -0.516738 
12   -0.482997 
13   -0.484416 
14   -0.496526 
15   0.148047 
16   0.156215 
17   0.16678 
18   0.148003 
19   0.170631 
20   0.154054 
21   0.198651 
22   0.185441 
23   0.181021 
24   0.198283 
25   0.180751 
26   0.185772 
27   0.137343 
28   0.193006 
 
>  <lowdin_charges> 
28 
1   -0.447945 
2   -0.447958 
3   -0.347445 
4   -0.346959 
5   -0.107254 
6   -0.174714 
7   0.168866 
8   0.16737 
9   0.193705 
10   -0.089247 
11   -0.088509 
12   -0.260268 
13   -0.259675 
14   -0.276704 
15   0.154755 
16   0.15659 
17   0.162031 
18   0.154577 
19   0.163355 
20   0.155029 
21   0.183244 
22   0.171826 
23   0.166021 
24   0.182455 
25   0.165826 
26   0.171497 
27   0.142445 
28   0.187086 
 
$$$$ 
 
