PCCDB-ID:  18164 
public computational chemistry database (PCCDB) project, http://pccdb.org 
 
 21 21  0  0  0  0  0  0  0  0999 V2000 
    1.2190    1.1028   -0.4882 C   0  0  0  0  0  0  0  0  0  0  0  0 
    1.7363   -0.2460    0.0373 C   0  0  0  0  0  0  0  0  0  0  0  0 
   -0.1900    1.3969    0.0539 C   0  0  0  0  0  0  0  0  0  0  0  0 
   -2.1591   -1.3456    2.1357 C   0  0  0  0  0  0  0  0  0  0  0  0 
    0.7107   -1.3594   -0.2457 C   0  0  0  0  0  0  0  0  0  0  0  0 
   -1.1369    0.2142   -0.2227 C   0  0  0  0  0  0  0  0  0  0  0  0 
   -0.7500   -1.2590    1.7111 C   0  0  0  0  0  0  0  0  0  0  0  0 
   -3.2651   -1.3966    2.4829 N   0  0  0  0  0  0  0  0  0  0  0  0 
   -0.6381   -1.0811    0.2668 N   0  0  0  0  0  0  0  0  0  0  0  0 
    1.1800    1.0668   -1.5873 H   0  0  0  0  0  0  0  0  0  0  0  0 
    1.9117    1.9119   -0.2268 H   0  0  0  0  0  0  0  0  0  0  0  0 
    1.9261   -0.1762    1.1180 H   0  0  0  0  0  0  0  0  0  0  0  0 
    2.6955   -0.5027   -0.4304 H   0  0  0  0  0  0  0  0  0  0  0  0 
   -0.5999    2.3061   -0.4040 H   0  0  0  0  0  0  0  0  0  0  0  0 
   -0.1381    1.5932    1.1343 H   0  0  0  0  0  0  0  0  0  0  0  0 
    1.0471   -2.3200    0.1628 H   0  0  0  0  0  0  0  0  0  0  0  0 
    0.6169   -1.4915   -1.3328 H   0  0  0  0  0  0  0  0  0  0  0  0 
   -1.2774    0.1111   -1.3075 H   0  0  0  0  0  0  0  0  0  0  0  0 
   -2.1281    0.3899    0.2089 H   0  0  0  0  0  0  0  0  0  0  0  0 
   -0.2625   -2.2035    1.9811 H   0  0  0  0  0  0  0  0  0  0  0  0 
   -0.2693   -0.4738    2.3234 H   0  0  0  0  0  0  0  0  0  0  0  0 
  1 11  1  0  0  0  0 
  1  2  1  0  0  0  0 
  1  3  1  0  0  0  0 
  2 12  1  0  0  0  0 
  3 15  1  0  0  0  0 
  4  8  3  0  0  0  0 
  5  2  1  0  0  0  0 
  5 16  1  0  0  0  0 
  5  9  1  0  0  0  0 
  6  3  1  0  0  0  0 
  6 19  1  0  0  0  0 
  6  9  1  0  0  0  0 
  7 20  1  0  0  0  0 
  7  4  1  0  0  0  0 
  7 21  1  0  0  0  0 
  9  7  1  0  0  0  0 
 10  1  1  0  0  0  0 
 13  2  1  0  0  0  0 
 14  3  1  0  0  0  0 
 17  5  1  0  0  0  0 
 18  6  1  0  0  0  0 
M  END 
>  <HBA> 
2 
 
>  <HBD> 
0 
 
>  <TPSA> 
27.03 
 
>  <cid> 
18164 
 
>  <dipole> 
4.47 
 
>  <excitation_energy_1> 
5.144 
 
>  <excitation_energy_2> 
5.565 
 
>  <excitation_energy_3> 
5.737 
 
>  <excitation_energy_4> 
5.87 
 
>  <homo_energy> 
-6.063 
 
>  <homo_lumo_gap> 
6.727 
 
>  <logP> 
0.934 
 
>  <lumo_energy> 
0.664 
 
>  <melting_point> 
31.89 
 
>  <molecular_refractivity> 
40.21 
 
>  <oscillator_strength_1> 
0.007 
 
>  <oscillator_strength_2> 
0.0148 
 
>  <oscillator_strength_3> 
0.0035 
 
>  <oscillator_strength_4> 
0.0102 
 
>  <open_babel_can_smiles> 
N#CCN1CCCCC1 
 
>  <mulliken_charges> 
21 
1   -0.258812 
2   -0.270483 
3   -0.271453 
4   0.364205 
5   -0.143265 
6   -0.158604 
7   -0.188198 
8   -0.476737 
9   -0.37399 
10   0.132708 
11   0.138773 
12   0.133319 
13   0.138552 
14   0.141043 
15   0.134867 
16   0.140417 
17   0.147302 
18   0.146069 
19   0.164609 
20   0.190838 
21   0.16884 
 
>  <lowdin_charges> 
21 
1   -0.277311 
2   -0.293047 
3   -0.293297 
4   -0.017169 
5   -0.202816 
6   -0.206336 
7   -0.198103 
8   -0.122059 
9   -0.178909 
10   0.137621 
11   0.147857 
12   0.137157 
13   0.149337 
14   0.15153 
15   0.138074 
16   0.146166 
17   0.1447 
18   0.144795 
19   0.15786 
20   0.180253 
21   0.153698 
 
$$$$ 
 
