PCCDB-ID:  67230 
public computational chemistry database (PCCDB) project, http://pccdb.org 
 
 27 28  0  0  0  0  0  0  0  0999 V2000 
    1.5190   -1.2448   -0.0145 C   0  0  0  0  0  0  0  0  0  0  0  0 
    3.4278    4.8778    2.8446 C   0  0  0  0  0  0  0  0  0  0  0  0 
    3.8664    3.6181    3.2551 C   0  0  0  0  0  0  0  0  0  0  0  0 
    2.7860    5.0257    1.6107 C   0  0  0  0  0  0  0  0  0  0  0  0 
    5.2341   -2.0208    0.3468 C   0  0  0  0  0  0  0  0  0  0  0  0 
    5.8023   -0.7572    0.4966 C   0  0  0  0  0  0  0  0  0  0  0  0 
    3.8523   -2.1485    0.1984 C   0  0  0  0  0  0  0  0  0  0  0  0 
    3.6806    2.5090    2.4290 C   0  0  0  0  0  0  0  0  0  0  0  0 
    2.5842    3.9177    0.7942 C   0  0  0  0  0  0  0  0  0  0  0  0 
    4.9745    0.3633    0.5128 C   0  0  0  0  0  0  0  0  0  0  0  0 
    3.0034   -1.0358    0.1806 C   0  0  0  0  0  0  0  0  0  0  0  0 
    3.0412    2.6492    1.1876 C   0  0  0  0  0  0  0  0  0  0  0  0 
    3.5839    0.2443    0.3561 C   0  0  0  0  0  0  0  0  0  0  0  0 
    2.7436    1.4869    0.2826 C   0  0  0  0  0  0  0  0  0  0  0  0 
    1.8181    1.5670   -0.5183 O   0  0  0  0  0  0  0  0  0  0  0  0 
    1.2638   -2.3012    0.1176 H   0  0  0  0  0  0  0  0  0  0  0  0 
    1.2068   -0.9330   -1.0157 H   0  0  0  0  0  0  0  0  0  0  0  0 
    0.9233   -0.6552    0.6891 H   0  0  0  0  0  0  0  0  0  0  0  0 
    3.5806    5.7424    3.4852 H   0  0  0  0  0  0  0  0  0  0  0  0 
    4.3523    3.4972    4.2195 H   0  0  0  0  0  0  0  0  0  0  0  0 
    2.4395    6.0051    1.2919 H   0  0  0  0  0  0  0  0  0  0  0  0 
    5.8618   -2.9082    0.3450 H   0  0  0  0  0  0  0  0  0  0  0  0 
    6.8772   -0.6424    0.6046 H   0  0  0  0  0  0  0  0  0  0  0  0 
    3.4174   -3.1386    0.0846 H   0  0  0  0  0  0  0  0  0  0  0  0 
    4.0137    1.5301    2.7583 H   0  0  0  0  0  0  0  0  0  0  0  0 
    2.0705    4.0080   -0.1574 H   0  0  0  0  0  0  0  0  0  0  0  0 
    5.4117    1.3506    0.6265 H   0  0  0  0  0  0  0  0  0  0  0  0 
  1 16  1  0  0  0  0 
  1 11  1  0  0  0  0 
  1 18  1  0  0  0  0 
  2  3  1  0  0  0  0 
  2 19  1  0  0  0  0 
  3 20  1  0  0  0  0 
  4  2  2  0  0  0  0 
  5  6  2  0  0  0  0 
  6 10  1  0  0  0  0 
  6 23  1  0  0  0  0 
  7  5  1  0  0  0  0 
  8 25  1  0  0  0  0 
  8  3  2  0  0  0  0 
  9 12  2  0  0  0  0 
  9  4  1  0  0  0  0 
 10 27  1  0  0  0  0 
 11  7  2  0  0  0  0 
 11 13  1  0  0  0  0 
 12  8  1  0  0  0  0 
 13 10  2  0  0  0  0 
 14 13  1  0  0  0  0 
 14 12  1  0  0  0  0 
 15 14  2  0  0  0  0 
 17  1  1  0  0  0  0 
 21  4  1  0  0  0  0 
 22  5  1  0  0  0  0 
 24  7  1  0  0  0  0 
 26  9  1  0  0  0  0 
M  END 
>  <HBA> 
1 
 
>  <HBD> 
0 
 
>  <TPSA> 
17.07 
 
>  <cid> 
67230 
 
>  <dipole> 
2.63 
 
>  <excitation_energy_1> 
3.565 
 
>  <excitation_energy_2> 
4.242 
 
>  <excitation_energy_3> 
4.554 
 
>  <excitation_energy_4> 
4.624 
 
>  <homo_energy> 
-6.561 
 
>  <homo_lumo_gap> 
4.923 
 
>  <logP> 
3.226 
 
>  <lumo_energy> 
-1.638 
 
>  <melting_point> 
68.59 
 
>  <molecular_refractivity> 
61.28 
 
>  <oscillator_strength_1> 
0.0012 
 
>  <oscillator_strength_2> 
0.0455 
 
>  <oscillator_strength_3> 
0.0896 
 
>  <oscillator_strength_4> 
0.0874 
 
>  <open_babel_can_smiles> 
Cc1ccccc1C(=O)c1ccccc1 
 
>  <mulliken_charges> 
27 
1   -0.511665 
2   -0.119507 
3   -0.135926 
4   -0.134592 
5   -0.114263 
6   -0.138097 
7   -0.190842 
8   -0.176384 
9   -0.152836 
10   -0.175952 
11   0.14493 
12   0.068916 
13   0.028193 
14   0.317804 
15   -0.467978 
16   0.142201 
17   0.188457 
18   0.163792 
19   0.136633 
20   0.135901 
21   0.137457 
22   0.134296 
23   0.133451 
24   0.128596 
25   0.150009 
26   0.160277 
27   0.14713 
 
>  <lowdin_charges> 
27 
1   -0.441329 
2   -0.142461 
3   -0.157498 
4   -0.155244 
5   -0.143626 
6   -0.162224 
7   -0.166519 
8   -0.149242 
9   -0.128899 
10   -0.149923 
11   0.025517 
12   -0.046204 
13   -0.051192 
14   0.155483 
15   -0.243077 
16   0.149286 
17   0.17583 
18   0.165525 
19   0.161617 
20   0.160069 
21   0.161005 
22   0.160838 
23   0.157994 
24   0.156999 
25   0.167551 
26   0.174487 
27   0.165241 
 
$$$$ 
 
