PCCDB-ID:  40751 
public computational chemistry database (PCCDB) project, http://pccdb.org 
 
 24 23  0  0  1  0  0  0  0  0999 V2000 
    4.2622    1.2528   -1.7541 C   0  0  0  0  0  0  0  0  0  0  0  0 
    5.5315   -0.7069    1.7433 C   0  0  0  0  0  0  0  0  0  0  0  0 
    2.2031    1.1106   -0.2597 C   0  0  0  0  0  0  0  0  0  0  0  0 
    5.2699   -2.5933    0.1105 C   0  0  0  0  0  0  0  0  0  0  0  0 
    3.7058    0.8107   -0.3951 C   0  0  1  0  0  0  0  0  0  0  0  0 
    5.2167   -1.0772    0.2910 C   0  0  1  0  0  0  0  0  0  0  0  0 
    3.8751   -0.6257   -0.1040 N   0  0  0  0  0  0  0  0  0  0  0  0 
    1.7081    0.6513    0.9800 O   0  0  0  0  0  0  0  0  0  0  0  0 
    5.0062   -2.8828   -1.2621 O   0  0  0  0  0  0  0  0  0  0  0  0 
    4.1320    2.3321   -1.9001 H   0  0  0  0  0  0  0  0  0  0  0  0 
    3.7438    0.7388   -2.5738 H   0  0  0  0  0  0  0  0  0  0  0  0 
    5.3310    1.0312   -1.8431 H   0  0  0  0  0  0  0  0  0  0  0  0 
    6.5304   -1.0600    2.0253 H   0  0  0  0  0  0  0  0  0  0  0  0 
    4.7953   -1.1526    2.4219 H   0  0  0  0  0  0  0  0  0  0  0  0 
    5.5113    0.3765    1.8948 H   0  0  0  0  0  0  0  0  0  0  0  0 
    1.6672    0.6425   -1.1078 H   0  0  0  0  0  0  0  0  0  0  0  0 
    2.0219    2.1901   -0.3162 H   0  0  0  0  0  0  0  0  0  0  0  0 
    4.5151   -3.0575    0.7641 H   0  0  0  0  0  0  0  0  0  0  0  0 
    6.2622   -2.9635    0.4094 H   0  0  0  0  0  0  0  0  0  0  0  0 
    4.2143    1.3630    0.4039 H   0  0  0  0  0  0  0  0  0  0  0  0 
    5.9988   -0.6499   -0.3621 H   0  0  0  0  0  0  0  0  0  0  0  0 
    3.6127   -1.1594   -0.9339 H   0  0  0  0  0  0  0  0  0  0  0  0 
    2.1757   -0.1994    1.1026 H   0  0  0  0  0  0  0  0  0  0  0  0 
    4.8671   -3.8372   -1.3494 H   0  0  0  0  0  0  0  0  0  0  0  0 
  1  5  1  0  0  0  0 
  2 15  1  0  0  0  0 
  2 13  1  0  0  0  0 
  2 14  1  0  0  0  0 
  3  8  1  0  0  0  0 
  4  6  1  0  0  0  0 
  4 19  1  0  0  0  0 
  4 18  1  0  0  0  0 
  5  3  1  0  0  0  0 
  5  7  1  0  0  0  0 
  5 20  1  1  0  0  0 
  6 21  1  6  0  0  0 
  6  2  1  0  0  0  0 
  7  6  1  0  0  0  0 
  8 23  1  0  0  0  0 
  9  4  1  0  0  0  0 
 10  1  1  0  0  0  0 
 11  1  1  0  0  0  0 
 12  1  1  0  0  0  0 
 16  3  1  0  0  0  0 
 17  3  1  0  0  0  0 
 22  7  1  0  0  0  0 
 24  9  1  0  0  0  0 
M  END 
>  <HBA> 
3 
 
>  <HBD> 
3 
 
>  <TPSA> 
52.49 
 
>  <cid> 
40751 
 
>  <dipole> 
3.36 
 
>  <excitation_energy_1> 
5.587 
 
>  <excitation_energy_2> 
5.999 
 
>  <excitation_energy_3> 
6.254 
 
>  <excitation_energy_4> 
6.337 
 
>  <homo_energy> 
-6.223 
 
>  <homo_lumo_gap> 
7.905 
 
>  <logP> 
-0.272 
 
>  <lumo_energy> 
1.682 
 
>  <melting_point> 
37.85 
 
>  <molecular_refractivity> 
36.08 
 
>  <oscillator_strength_1> 
0.0043 
 
>  <oscillator_strength_2> 
0.0191 
 
>  <oscillator_strength_3> 
0.006 
 
>  <oscillator_strength_4> 
0.001 
 
>  <open_babel_can_smiles> 
OC[C@@H](N[C@H](CO)C)C 
 
>  <mulliken_charges> 
24 
1   -0.45746 
2   -0.448934 
3   -0.003169 
4   -0.044767 
5   0.008772 
6   0.056494 
7   -0.604643 
8   -0.635765 
9   -0.627253 
10   0.145657 
11   0.143195 
12   0.152866 
13   0.14094 
14   0.151573 
15   0.157808 
16   0.101732 
17   0.132926 
18   0.128972 
19   0.127292 
20   0.138744 
21   0.124154 
22   0.317224 
23   0.394329 
24   0.399312 
 
>  <lowdin_charges> 
24 
1   -0.456941 
2   -0.448481 
3   -0.138964 
4   -0.142311 
5   -0.08456 
6   -0.065968 
7   -0.363969 
8   -0.4789 
9   -0.472464 
10   0.151555 
11   0.149441 
12   0.152308 
13   0.150155 
14   0.15437 
15   0.155068 
16   0.116899 
17   0.140245 
18   0.133871 
19   0.133249 
20   0.144224 
21   0.128587 
22   0.26166 
23   0.333324 
24   0.347602 
 
$$$$ 
 
