PCCDB-ID:  7594 
public computational chemistry database (PCCDB) project, http://pccdb.org 
 
 29 30  0  0  0  0  0  0  0  0999 V2000 
   -1.6931    0.9846   -1.1946 C   0  0  0  0  0  0  0  0  0  0  0  0 
    3.8591    3.4305    5.3539 C   0  0  0  0  0  0  0  0  0  0  0  0 
   -1.1276    2.2588   -1.1170 C   0  0  0  0  0  0  0  0  0  0  0  0 
   -1.0232   -0.0924   -0.6119 C   0  0  0  0  0  0  0  0  0  0  0  0 
    2.6945    2.8623    4.8379 C   0  0  0  0  0  0  0  0  0  0  0  0 
    5.0648    3.2373    4.6753 C   0  0  0  0  0  0  0  0  0  0  0  0 
    0.0973    2.4512   -0.4824 C   0  0  0  0  0  0  0  0  0  0  0  0 
    0.1954    0.0892    0.0407 C   0  0  0  0  0  0  0  0  0  0  0  0 
    2.7195    2.1082    3.6640 C   0  0  0  0  0  0  0  0  0  0  0  0 
    5.1003    2.5055    3.4922 C   0  0  0  0  0  0  0  0  0  0  0  0 
    0.7731    1.3686    0.1022 C   0  0  0  0  0  0  0  0  0  0  0  0 
    3.9281    1.9309    2.9688 C   0  0  0  0  0  0  0  0  0  0  0  0 
    3.0727    0.7483    0.8825 C   0  0  0  0  0  0  0  0  0  0  0  0 
    3.3077   -0.3268    0.2226 N   0  0  0  0  0  0  0  0  0  0  0  0 
    1.9791    1.6104    0.7826 N   0  0  0  0  0  0  0  0  0  0  0  0 
    4.0438    1.1825    1.7830 N   0  0  0  0  0  0  0  0  0  0  0  0 
   -2.6434    0.8344   -1.6982 H   0  0  0  0  0  0  0  0  0  0  0  0 
    3.8300    4.0103    6.2716 H   0  0  0  0  0  0  0  0  0  0  0  0 
   -1.6360    3.1104   -1.5612 H   0  0  0  0  0  0  0  0  0  0  0  0 
   -1.4567   -1.0883   -0.6512 H   0  0  0  0  0  0  0  0  0  0  0  0 
    1.7501    2.9882    5.3612 H   0  0  0  0  0  0  0  0  0  0  0  0 
    5.9848    3.6674    5.0624 H   0  0  0  0  0  0  0  0  0  0  0  0 
    0.5407    3.4437   -0.4413 H   0  0  0  0  0  0  0  0  0  0  0  0 
    0.6872   -0.7488    0.5223 H   0  0  0  0  0  0  0  0  0  0  0  0 
    1.8108    1.6430    3.3006 H   0  0  0  0  0  0  0  0  0  0  0  0 
    6.0381    2.3759    2.9571 H   0  0  0  0  0  0  0  0  0  0  0  0 
    2.6244   -0.4539   -0.5232 H   0  0  0  0  0  0  0  0  0  0  0  0 
    2.1561    2.5717    1.0440 H   0  0  0  0  0  0  0  0  0  0  0  0 
    4.9116    0.6802    1.6490 H   0  0  0  0  0  0  0  0  0  0  0  0 
  1  3  2  0  0  0  0 
  1  4  1  0  0  0  0 
  2 18  1  0  0  0  0 
  3  7  1  0  0  0  0 
  4  8  2  0  0  0  0 
  5  2  1  0  0  0  0 
  5 21  1  0  0  0  0 
  6 22  1  0  0  0  0 
  6  2  2  0  0  0  0 
  7 23  1  0  0  0  0 
  7 11  2  0  0  0  0 
  8 11  1  0  0  0  0 
  8 24  1  0  0  0  0 
  9  5  2  0  0  0  0 
 10  6  1  0  0  0  0 
 11 15  1  0  0  0  0 
 12 10  2  0  0  0  0 
 12  9  1  0  0  0  0 
 13 16  1  0  0  0  0 
 14 13  2  0  0  0  0 
 15 13  1  0  0  0  0 
 15 28  1  0  0  0  0 
 16 12  1  0  0  0  0 
 17  1  1  0  0  0  0 
 19  3  1  0  0  0  0 
 20  4  1  0  0  0  0 
 25  9  1  0  0  0  0 
 26 10  1  0  0  0  0 
 27 14  1  0  0  0  0 
 29 16  1  0  0  0  0 
M  END 
>  <HBA> 
3 
 
>  <HBD> 
2 
 
>  <TPSA> 
50.41 
 
>  <cid> 
7594 
 
>  <dipole> 
2.41 
 
>  <excitation_energy_1> 
4.633 
 
>  <excitation_energy_2> 
4.649 
 
>  <excitation_energy_3> 
4.682 
 
>  <excitation_energy_4> 
4.795 
 
>  <homo_energy> 
-5.668 
 
>  <homo_lumo_gap> 
5.344 
 
>  <logP> 
3.518 
 
>  <lumo_energy> 
-0.324 
 
>  <melting_point> 
143.91 
 
>  <molecular_refractivity> 
67.19 
 
>  <oscillator_strength_1> 
0.2269 
 
>  <oscillator_strength_2> 
0.0958 
 
>  <oscillator_strength_3> 
0.1056 
 
>  <oscillator_strength_4> 
0.0896 
 
>  <open_babel_can_smiles> 
N=C(Nc1ccccc1)Nc1ccccc1 
 
>  <mulliken_charges> 
29 
1   -0.130969 
2   -0.131562 
3   -0.133041 
4   -0.140237 
5   -0.140509 
6   -0.133622 
7   -0.189219 
8   -0.181703 
9   -0.17749 
10   -0.181227 
11   0.349145 
12   0.330082 
13   0.622397 
14   -0.648899 
15   -0.72201 
16   -0.716377 
17   0.129605 
18   0.128084 
19   0.133007 
20   0.135191 
21   0.13258 
22   0.132162 
23   0.126334 
24   0.157646 
25   0.153267 
26   0.128011 
27   0.287885 
28   0.337844 
29   0.343625 
 
>  <lowdin_charges> 
29 
1   -0.172331 
2   -0.17475 
3   -0.146759 
4   -0.145042 
5   -0.147263 
6   -0.146786 
7   -0.190504 
8   -0.194236 
9   -0.200886 
10   -0.189241 
11   0.057557 
12   0.053181 
13   0.130813 
14   -0.4678 
15   -0.26512 
16   -0.258621 
17   0.158491 
18   0.15789 
19   0.160796 
20   0.160052 
21   0.159257 
22   0.159771 
23   0.155739 
24   0.171858 
25   0.169153 
26   0.157634 
27   0.258365 
28   0.290397 
29   0.298382 
 
$$$$ 
 
