PCCDB-ID:  23579 
public computational chemistry database (PCCDB) project, http://pccdb.org 
 
 33 33  0  0  0  0  0  0  0  0999 V2000 
    8.7281    4.2143    1.7031 C   0  0  0  0  0  0  0  0  0  0  0  0 
    7.2658    0.3334    6.7265 C   0  0  0  0  0  0  0  0  0  0  0  0 
    9.0278    2.8680    1.0338 C   0  0  0  0  0  0  0  0  0  0  0  0 
    7.9179    1.8156    1.1936 C   0  0  0  0  0  0  0  0  0  0  0  0 
    3.8000   -3.0769    5.2617 C   0  0  0  0  0  0  0  0  0  0  0  0 
    3.9160   -2.7318    3.9151 C   0  0  0  0  0  0  0  0  0  0  0  0 
    7.6935    1.3517    2.6401 C   0  0  0  0  0  0  0  0  0  0  0  0 
    4.5903   -2.4181    6.1952 C   0  0  0  0  0  0  0  0  0  0  0  0 
    4.8108   -1.7426    3.5127 C   0  0  0  0  0  0  0  0  0  0  0  0 
    6.6360    0.2597    2.7304 C   0  0  0  0  0  0  0  0  0  0  0  0 
    6.2787   -0.7929    6.9637 C   0  0  0  0  0  0  0  0  0  0  0  0 
    5.5013   -1.4131    5.8310 C   0  0  0  0  0  0  0  0  0  0  0  0 
    5.6081   -1.0776    4.4574 C   0  0  0  0  0  0  0  0  0  0  0  0 
    6.1050   -1.2060    8.1031 O   0  0  0  0  0  0  0  0  0  0  0  0 
    6.4983   -0.1075    4.1053 O   0  0  0  0  0  0  0  0  0  0  0  0 
    9.5272    4.9370    1.5039 H   0  0  0  0  0  0  0  0  0  0  0  0 
    8.6358    4.1204    2.7909 H   0  0  0  0  0  0  0  0  0  0  0  0 
    7.7908    4.6425    1.3260 H   0  0  0  0  0  0  0  0  0  0  0  0 
    6.7848    1.1848    6.2352 H   0  0  0  0  0  0  0  0  0  0  0  0 
    8.0756    0.0115    6.0641 H   0  0  0  0  0  0  0  0  0  0  0  0 
    7.6708    0.6343    7.6950 H   0  0  0  0  0  0  0  0  0  0  0  0 
    9.9688    2.4619    1.4308 H   0  0  0  0  0  0  0  0  0  0  0  0 
    9.1963    3.0324   -0.0386 H   0  0  0  0  0  0  0  0  0  0  0  0 
    8.1683    0.9427    0.5740 H   0  0  0  0  0  0  0  0  0  0  0  0 
    6.9779    2.2190    0.7886 H   0  0  0  0  0  0  0  0  0  0  0  0 
    3.1038   -3.8481    5.5775 H   0  0  0  0  0  0  0  0  0  0  0  0 
    3.3090   -3.2326    3.1651 H   0  0  0  0  0  0  0  0  0  0  0  0 
    7.3829    2.1910    3.2733 H   0  0  0  0  0  0  0  0  0  0  0  0 
    8.6326    0.9678    3.0599 H   0  0  0  0  0  0  0  0  0  0  0  0 
    4.5291   -2.6584    7.2513 H   0  0  0  0  0  0  0  0  0  0  0  0 
    4.8847   -1.4916    2.4618 H   0  0  0  0  0  0  0  0  0  0  0  0 
    6.9331   -0.6184    2.1394 H   0  0  0  0  0  0  0  0  0  0  0  0 
    5.6718    0.6180    2.3426 H   0  0  0  0  0  0  0  0  0  0  0  0 
  1 17  1  0  0  0  0 
  2 11  1  0  0  0  0 
  2 21  1  0  0  0  0 
  3  4  1  0  0  0  0 
  3 22  1  0  0  0  0 
  3  1  1  0  0  0  0 
  4  7  1  0  0  0  0 
  5 26  1  0  0  0  0 
  5  8  2  0  0  0  0 
  6  5  1  0  0  0  0 
  7 10  1  0  0  0  0 
  7 29  1  0  0  0  0 
  7 28  1  0  0  0  0 
  8 30  1  0  0  0  0 
  9  6  2  0  0  0  0 
  9 13  1  0  0  0  0 
 10 15  1  0  0  0  0 
 11 14  2  0  0  0  0 
 12  8  1  0  0  0  0 
 12 11  1  0  0  0  0 
 13 12  2  0  0  0  0 
 15 13  1  0  0  0  0 
 16  1  1  0  0  0  0 
 18  1  1  0  0  0  0 
 19  2  1  0  0  0  0 
 20  2  1  0  0  0  0 
 23  3  1  0  0  0  0 
 24  4  1  0  0  0  0 
 25  4  1  0  0  0  0 
 27  6  1  0  0  0  0 
 31  9  1  0  0  0  0 
 32 10  1  0  0  0  0 
 33 10  1  0  0  0  0 
M  END 
>  <HBA> 
2 
 
>  <HBD> 
0 
 
>  <TPSA> 
26.3 
 
>  <cid> 
23579 
 
>  <dipole> 
4.91 
 
>  <excitation_energy_1> 
3.783 
 
>  <excitation_energy_2> 
4.281 
 
>  <excitation_energy_3> 
5.126 
 
>  <excitation_energy_4> 
5.711 
 
>  <homo_energy> 
-6.193 
 
>  <homo_lumo_gap> 
4.982 
 
>  <logP> 
3.458 
 
>  <lumo_energy> 
-1.211 
 
>  <melting_point> 
41.66 
 
>  <molecular_refractivity> 
62.36 
 
>  <oscillator_strength_1> 
0.0001 
 
>  <oscillator_strength_2> 
0.1002 
 
>  <oscillator_strength_3> 
0.1584 
 
>  <oscillator_strength_4> 
0.0017 
 
>  <open_babel_can_smiles> 
CCCCCOc1ccccc1C(=O)C 
 
>  <mulliken_charges> 
33 
1   -0.445759 
2   -0.514133 
3   -0.248735 
4   -0.262168 
5   -0.129542 
6   -0.129356 
7   -0.279934 
8   -0.172279 
9   -0.196011 
10   -0.032149 
11   0.410421 
12   0.02414 
13   0.323416 
14   -0.460512 
15   -0.530382 
16   0.147448 
17   0.148696 
18   0.142785 
19   0.168616 
20   0.170341 
21   0.165045 
22   0.134788 
23   0.136051 
24   0.132737 
25   0.13238 
26   0.132742 
27   0.135386 
28   0.154519 
29   0.148909 
30   0.168162 
31   0.138273 
32   0.142911 
33   0.143192 
 
>  <lowdin_charges> 
33 
1   -0.446394 
2   -0.472743 
3   -0.269651 
4   -0.276798 
5   -0.177861 
6   -0.132404 
7   -0.28347 
8   -0.117007 
9   -0.216131 
10   -0.126811 
11   0.168347 
12   -0.083754 
13   0.112205 
14   -0.254917 
15   -0.192677 
16   0.153509 
17   0.146514 
18   0.147167 
19   0.170513 
20   0.171814 
21   0.165204 
22   0.141388 
23   0.142959 
24   0.142797 
25   0.139969 
26   0.161036 
27   0.161719 
28   0.152758 
29   0.150196 
30   0.178106 
31   0.163377 
32   0.140784 
33   0.140255 
 
$$$$ 
 
