PCCDB-ID:  70325 
public computational chemistry database (PCCDB) project, http://pccdb.org 
 
 20 20  0  0  0  0  0  0  0  0999 V2000 
    2.2502   -1.1686    0.7586 C   0  0  0  0  0  0  0  0  0  0  0  0 
    4.0670    0.4305   -3.3968 C   0  0  0  0  0  0  0  0  0  0  0  0 
    3.6070   -1.9371   -3.1716 C   0  0  0  0  0  0  0  0  0  0  0  0 
    3.6145    0.6396   -2.1057 C   0  0  0  0  0  0  0  0  0  0  0  0 
    3.1507   -1.7363   -1.8724 C   0  0  0  0  0  0  0  0  0  0  0  0 
    4.0685   -0.8658   -3.9456 C   0  0  0  0  0  0  0  0  0  0  0  0 
    3.1531   -0.4411   -1.3325 C   0  0  0  0  0  0  0  0  0  0  0  0 
    4.5355   -1.1543   -5.3119 C   0  0  0  0  0  0  0  0  0  0  0  0 
    4.5624   -2.2489   -5.8552 O   0  0  0  0  0  0  0  0  0  0  0  0 
    5.4075   -0.3605   -7.2962 O   0  0  0  0  0  0  0  0  0  0  0  0 
    2.7339   -0.1274   -0.0814 O   0  0  0  0  0  0  0  0  0  0  0  0 
    4.9612   -0.0380   -5.9646 O   0  0  0  0  0  0  0  0  0  0  0  0 
    1.9756   -0.6874    1.6983 H   0  0  0  0  0  0  0  0  0  0  0  0 
    3.0243   -1.9228    0.9478 H   0  0  0  0  0  0  0  0  0  0  0  0 
    1.3667   -1.6543    0.3258 H   0  0  0  0  0  0  0  0  0  0  0  0 
    4.4205    1.2690   -3.9867 H   0  0  0  0  0  0  0  0  0  0  0  0 
    3.6113   -2.9330   -3.6022 H   0  0  0  0  0  0  0  0  0  0  0  0 
    3.6052    1.6312   -1.6652 H   0  0  0  0  0  0  0  0  0  0  0  0 
    2.7982   -2.5825   -1.2946 H   0  0  0  0  0  0  0  0  0  0  0  0 
    5.2476   -1.3398   -7.2915 H   0  0  0  0  0  0  0  0  0  0  0  0 
  1 14  1  0  0  0  0 
  1 13  1  0  0  0  0 
  2  4  1  0  0  0  0 
  3  5  2  0  0  0  0 
  4 18  1  0  0  0  0 
  4  7  2  0  0  0  0 
  5  7  1  0  0  0  0 
  5 19  1  0  0  0  0 
  6  2  2  0  0  0  0 
  6  3  1  0  0  0  0 
  7 11  1  0  0  0  0 
  8  6  1  0  0  0  0 
  9  8  2  0  0  0  0 
 10 20  1  0  0  0  0 
 10 12  1  0  0  0  0 
 11  1  1  0  0  0  0 
 12  8  1  0  0  0  0 
 15  1  1  0  0  0  0 
 16  2  1  0  0  0  0 
 17  3  1  0  0  0  0 
M  END 
>  <HBA> 
4 
 
>  <HBD> 
1 
 
>  <TPSA> 
55.76 
 
>  <cid> 
70325 
 
>  <dipole> 
4.79 
 
>  <excitation_energy_1> 
4.768 
 
>  <excitation_energy_2> 
4.872 
 
>  <excitation_energy_3> 
5.313 
 
>  <excitation_energy_4> 
5.48 
 
>  <homo_energy> 
-6.52 
 
>  <homo_lumo_gap> 
5.146 
 
>  <logP> 
1.325 
 
>  <lumo_energy> 
-1.374 
 
>  <melting_point> 
74.5 
 
>  <molecular_refractivity> 
40.98 
 
>  <oscillator_strength_1> 
0.4425 
 
>  <oscillator_strength_2> 
0.0003 
 
>  <oscillator_strength_3> 
0.0006 
 
>  <oscillator_strength_4> 
0.0002 
 
>  <open_babel_can_smiles> 
OOC(=O)c1ccc(cc1)OC 
 
>  <mulliken_charges> 
20 
1   -0.222099 
2   -0.161175 
3   -0.159521 
4   -0.178572 
5   -0.202916 
6   0.045709 
7   0.391852 
8   0.615842 
9   -0.52277 
10   -0.390527 
11   -0.497878 
12   -0.283505 
13   0.178704 
14   0.160248 
15   0.160279 
16   0.170523 
17   0.169769 
18   0.151552 
19   0.143937 
20   0.430549 
 
>  <lowdin_charges> 
20 
1   -0.279514 
2   -0.127352 
3   -0.113372 
4   -0.178738 
5   -0.213531 
6   -0.066806 
7   0.121296 
8   0.192398 
9   -0.287298 
10   -0.315862 
11   -0.184458 
12   -0.070939 
13   0.167953 
14   0.15118 
15   0.150907 
16   0.17956 
17   0.179288 
18   0.172974 
19   0.169306 
20   0.353007 
 
$$$$ 
 
