PCCDB-ID:  54278 
public computational chemistry database (PCCDB) project, http://pccdb.org 
 
 27 28  0  0  0  0  0  0  0  0999 V2000 
   -2.5895    0.4359   -0.5682 C   0  0  0  0  0  0  0  0  0  0  0  0 
   -2.3791    1.8195   -0.3561 C   0  0  0  0  0  0  0  0  0  0  0  0 
   -1.5514   -0.4593   -0.4279 C   0  0  0  0  0  0  0  0  0  0  0  0 
   -1.1325    2.2839   -0.0035 C   0  0  0  0  0  0  0  0  0  0  0  0 
    2.0776   -0.3226    0.4514 C   0  0  0  0  0  0  0  0  0  0  0  0 
    2.1733    1.0764    0.6471 C   0  0  0  0  0  0  0  0  0  0  0  0 
    0.7552   -2.3762   -0.1480 C   0  0  0  0  0  0  0  0  0  0  0  0 
    0.8739   -0.8870    0.0895 C   0  0  0  0  0  0  0  0  0  0  0  0 
   -0.2487   -0.0138   -0.0697 C   0  0  0  0  0  0  0  0  0  0  0  0 
   -0.0414    1.3881    0.1493 C   0  0  0  0  0  0  0  0  0  0  0  0 
    0.6002   -3.9883   -1.9836 C   0  0  0  0  0  0  0  0  0  0  0  0 
    0.6481   -4.9351   -1.1185 N   0  0  0  0  0  0  0  0  0  0  0  0 
    0.4041   -4.0996   -3.3711 N   0  0  0  0  0  0  0  0  0  0  0  0 
    1.1685    1.9148    0.5036 N   0  0  0  0  0  0  0  0  0  0  0  0 
    0.7185   -2.6625   -1.5845 N   0  0  0  0  0  0  0  0  0  0  0  0 
   -3.5786    0.0778   -0.8402 H   0  0  0  0  0  0  0  0  0  0  0  0 
   -3.2083    2.5126   -0.4689 H   0  0  0  0  0  0  0  0  0  0  0  0 
   -1.7318   -1.5183   -0.5873 H   0  0  0  0  0  0  0  0  0  0  0  0 
   -0.9400    3.3379    0.1706 H   0  0  0  0  0  0  0  0  0  0  0  0 
    2.9588   -0.9441    0.5846 H   0  0  0  0  0  0  0  0  0  0  0  0 
    3.1307    1.5125    0.9322 H   0  0  0  0  0  0  0  0  0  0  0  0 
   -0.1269   -2.7873    0.3637 H   0  0  0  0  0  0  0  0  0  0  0  0 
    1.6190   -2.8968    0.2718 H   0  0  0  0  0  0  0  0  0  0  0  0 
    0.6549   -5.8487   -1.5752 H   0  0  0  0  0  0  0  0  0  0  0  0 
    0.5034   -5.0465   -3.7168 H   0  0  0  0  0  0  0  0  0  0  0  0 
    0.9633   -3.4513   -3.9168 H   0  0  0  0  0  0  0  0  0  0  0  0 
    0.1523   -2.0184   -2.1249 H   0  0  0  0  0  0  0  0  0  0  0  0 
  1  3  2  0  0  0  0 
  1  2  1  0  0  0  0 
  2  4  2  0  0  0  0 
  3  9  1  0  0  0  0 
  4 10  1  0  0  0  0 
  4 19  1  0  0  0  0 
  5 20  1  0  0  0  0 
  5  6  2  0  0  0  0 
  6 21  1  0  0  0  0 
  7  8  1  0  0  0  0 
  7 23  1  0  0  0  0 
  7 22  1  0  0  0  0 
  8  5  1  0  0  0  0 
  9  8  2  0  0  0  0 
  9 10  1  0  0  0  0 
 10 14  2  0  0  0  0 
 11 15  1  0  0  0  0 
 11 12  1  0  0  0  0 
 13 11  2  0  0  0  0 
 14  6  1  0  0  0  0 
 15  7  1  0  0  0  0 
 16  1  1  0  0  0  0 
 17  2  1  0  0  0  0 
 18  3  1  0  0  0  0 
 24 12  1  0  0  0  0 
 25 13  1  0  0  0  0 
 26 13  1  0  0  0  0 
 27 15  1  0  0  0  0 
M  RAD  1  12   2 
M  END 
>  <HBA> 
4 
 
>  <HBD> 
2 
 
>  <TPSA> 
77.29 
 
>  <cid> 
54278 
 
>  <dipole> 
3.13 
 
>  <excitation_energy_1> 
4.157 
 
>  <excitation_energy_2> 
4.263 
 
>  <excitation_energy_3> 
4.386 
 
>  <excitation_energy_4> 
4.48 
 
>  <homo_energy> 
-6.185 
 
>  <homo_lumo_gap> 
4.729 
 
>  <logP> 
2.409 
 
>  <lumo_energy> 
-1.456 
 
>  <melting_point> 
193.69 
 
>  <molecular_refractivity> 
60.62 
 
>  <oscillator_strength_1> 
0.0156 
 
>  <oscillator_strength_2> 
0.0119 
 
>  <oscillator_strength_3> 
0.0535 
 
>  <oscillator_strength_4> 
0.0201 
 
>  <open_babel_can_smiles> 
[NH]C(=[NH2])NCc1ccnc2c1cccc2 
 
>  <mulliken_charges> 
27 
1   -0.130744 
2   -0.136516 
3   -0.218015 
4   -0.139814 
5   -0.207089 
6   0.046676 
7   -0.177984 
8   0.115255 
9   0.110567 
10   0.232166 
11   0.588385 
12   -0.645612 
13   -0.756652 
14   -0.493868 
15   -0.606816 
16   0.136038 
17   0.136036 
18   0.145628 
19   0.146073 
20   0.138744 
21   0.140618 
22   0.164479 
23   0.177184 
24   0.265957 
25   0.31976 
26   0.324431 
27   0.325113 
 
>  <lowdin_charges> 
27 
1   -0.15245 
2   -0.154288 
3   -0.168335 
4   -0.146819 
5   -0.183976 
6   -0.0848 
7   -0.186751 
8   0.013147 
9   -0.025497 
10   0.041418 
11   0.124747 
12   -0.477709 
13   -0.514519 
14   -0.150074 
15   -0.3146 
16   0.160777 
17   0.162503 
18   0.162517 
19   0.169166 
20   0.165786 
21   0.156264 
22   0.15216 
23   0.170046 
24   0.247527 
25   0.275257 
26   0.280544 
27   0.277959 
 
$$$$ 
 
