PCCDB-ID:  52053 
public computational chemistry database (PCCDB) project, http://pccdb.org 
 
 27 28  0  0  0  0  0  0  0  0999 V2000 
    3.6094    1.4090    0.0709 C   0  0  0  0  0  0  0  0  0  0  0  0 
    6.9969   -1.3684   -1.3995 C   0  0  0  0  0  0  0  0  0  0  0  0 
    0.8197   -2.9140   -2.7548 C   0  0  0  0  0  0  0  0  0  0  0  0 
    7.3736   -1.4488   -0.0572 C   0  0  0  0  0  0  0  0  0  0  0  0 
    1.4687   -4.1473   -2.6734 C   0  0  0  0  0  0  0  0  0  0  0  0 
    5.6562   -1.1699   -1.7098 C   0  0  0  0  0  0  0  0  0  0  0  0 
    1.3998   -1.7834   -2.1898 C   0  0  0  0  0  0  0  0  0  0  0  0 
    6.3811   -1.3237    0.9123 C   0  0  0  0  0  0  0  0  0  0  0  0 
    2.6961   -4.1839   -2.0187 C   0  0  0  0  0  0  0  0  0  0  0  0 
    2.7148    0.3247   -0.5047 C   0  0  0  0  0  0  0  0  0  0  0  0 
    4.7402   -1.0712   -0.6568 C   0  0  0  0  0  0  0  0  0  0  0  0 
    2.6381   -1.9375   -1.5411 C   0  0  0  0  0  0  0  0  0  0  0  0 
    5.0841   -1.1440    0.6271 N   0  0  0  0  0  0  0  0  0  0  0  0 
    3.2703   -3.1127   -1.4624 N   0  0  0  0  0  0  0  0  0  0  0  0 
    3.3468   -0.8482   -0.9489 N   0  0  0  0  0  0  0  0  0  0  0  0 
    1.5084    0.4882   -0.5913 O   0  0  0  0  0  0  0  0  0  0  0  0 
    4.5162    1.5621   -0.5221 H   0  0  0  0  0  0  0  0  0  0  0  0 
    3.9205    1.1439    1.0853 H   0  0  0  0  0  0  0  0  0  0  0  0 
    3.0226    2.3283    0.0986 H   0  0  0  0  0  0  0  0  0  0  0  0 
    7.7367   -1.4528   -2.1908 H   0  0  0  0  0  0  0  0  0  0  0  0 
   -0.1378   -2.8257   -3.2612 H   0  0  0  0  0  0  0  0  0  0  0  0 
    8.4092   -1.5995    0.2313 H   0  0  0  0  0  0  0  0  0  0  0  0 
    1.0406   -5.0475   -3.1030 H   0  0  0  0  0  0  0  0  0  0  0  0 
    5.3141   -1.0991   -2.7367 H   0  0  0  0  0  0  0  0  0  0  0  0 
    0.9138   -0.8210   -2.2291 H   0  0  0  0  0  0  0  0  0  0  0  0 
    6.6305   -1.3736    1.9705 H   0  0  0  0  0  0  0  0  0  0  0  0 
    3.2513   -5.1162   -1.9272 H   0  0  0  0  0  0  0  0  0  0  0  0 
  1 19  1  0  0  0  0 
  1 18  1  0  0  0  0 
  2  4  1  0  0  0  0 
  3  5  2  0  0  0  0 
  3  7  1  0  0  0  0 
  4 22  1  0  0  0  0 
  4  8  2  0  0  0  0 
  5  9  1  0  0  0  0 
  6  2  2  0  0  0  0 
  6 11  1  0  0  0  0 
  7 12  2  0  0  0  0 
  8 26  1  0  0  0  0 
  9 27  1  0  0  0  0 
  9 14  2  0  0  0  0 
 10  1  1  0  0  0  0 
 11 13  2  0  0  0  0 
 12 14  1  0  0  0  0 
 12 15  1  0  0  0  0 
 13  8  1  0  0  0  0 
 15 11  1  0  0  0  0 
 15 10  1  0  0  0  0 
 16 10  2  0  0  0  0 
 17  1  1  0  0  0  0 
 20  2  1  0  0  0  0 
 21  3  1  0  0  0  0 
 23  5  1  0  0  0  0 
 24  6  1  0  0  0  0 
 25  7  1  0  0  0  0 
M  END 
>  <HBA> 
3 
 
>  <HBD> 
0 
 
>  <TPSA> 
46.09 
 
>  <cid> 
52053 
 
>  <dipole> 
3.8 
 
>  <excitation_energy_1> 
4.503 
 
>  <excitation_energy_2> 
4.643 
 
>  <excitation_energy_3> 
4.832 
 
>  <excitation_energy_4> 
4.959 
 
>  <homo_energy> 
-6.147 
 
>  <homo_lumo_gap> 
5.265 
 
>  <logP> 
2.161 
 
>  <lumo_energy> 
-0.882 
 
>  <melting_point> 
98.99 
 
>  <molecular_refractivity> 
61.48 
 
>  <oscillator_strength_1> 
0.0875 
 
>  <oscillator_strength_2> 
0.0347 
 
>  <oscillator_strength_3> 
0.081 
 
>  <oscillator_strength_4> 
0.0065 
 
>  <open_babel_can_smiles> 
CC(=O)N(c1ccccn1)c1ccccn1 
 
>  <mulliken_charges> 
27 
1   -0.540194 
2   -0.108236 
3   -0.114825 
4   -0.138321 
5   -0.142518 
6   -0.117526 
7   -0.142717 
8   0.036445 
9   0.036059 
10   0.585509 
11   0.425596 
12   0.472172 
13   -0.435562 
14   -0.485635 
15   -0.585902 
16   -0.48361 
17   0.164456 
18   0.201414 
19   0.17996 
20   0.148782 
21   0.144584 
22   0.143274 
23   0.13564 
24   0.149832 
25   0.183333 
26   0.147214 
27   0.140777 
 
>  <lowdin_charges> 
27 
1   -0.472064 
2   -0.126008 
3   -0.123167 
4   -0.171162 
5   -0.189341 
6   -0.161252 
7   -0.184656 
8   -0.082591 
9   -0.084879 
10   0.184185 
11   0.105086 
12   0.105548 
13   -0.14442 
14   -0.165303 
15   -0.077701 
16   -0.278401 
17   0.166751 
18   0.185541 
19   0.175236 
20   0.167682 
21   0.164078 
22   0.166091 
23   0.164315 
24   0.171551 
25   0.189452 
26   0.158725 
27   0.156704 
 
$$$$ 
 
