PCCDB-ID:  9093 
public computational chemistry database (PCCDB) project, http://pccdb.org 
 
 24 25  0  0  0  0  0  0  0  0999 V2000 
    2.6351   -0.0679    0.0034 C   0  0  0  0  0  0  0  0  0  0  0  0 
    1.8431    0.9819   -0.7921 C   0  0  0  0  0  0  0  0  0  0  0  0 
    1.7756   -1.3066    0.2997 C   0  0  0  0  0  0  0  0  0  0  0  0 
    0.5389    1.3616   -0.0725 C   0  0  0  0  0  0  0  0  0  0  0  0 
    0.4702   -0.9290    1.0164 C   0  0  0  0  0  0  0  0  0  0  0  0 
   -2.1786   -0.6963   -0.8512 C   0  0  0  0  0  0  0  0  0  0  0  0 
   -2.6185    0.3696    0.1472 C   0  0  0  0  0  0  0  0  0  0  0  0 
   -0.3177    0.1293    0.2347 C   0  0  0  0  0  0  0  0  0  0  0  0 
   -0.7948   -0.4082   -1.0092 O   0  0  0  0  0  0  0  0  0  0  0  0 
   -1.4801    0.4857    0.9943 O   0  0  0  0  0  0  0  0  0  0  0  0 
    2.9760    0.3750    0.9514 H   0  0  0  0  0  0  0  0  0  0  0  0 
    3.5381   -0.3580   -0.5486 H   0  0  0  0  0  0  0  0  0  0  0  0 
    1.5972    0.5804   -1.7837 H   0  0  0  0  0  0  0  0  0  0  0  0 
    2.4532    1.8794   -0.9541 H   0  0  0  0  0  0  0  0  0  0  0  0 
    2.3378   -2.0271    0.9068 H   0  0  0  0  0  0  0  0  0  0  0  0 
    1.5264   -1.8100   -0.6435 H   0  0  0  0  0  0  0  0  0  0  0  0 
   -0.0558    2.0604   -0.6718 H   0  0  0  0  0  0  0  0  0  0  0  0 
    0.7635    1.8560    0.8817 H   0  0  0  0  0  0  0  0  0  0  0  0 
    0.6850   -0.5210    2.0130 H   0  0  0  0  0  0  0  0  0  0  0  0 
   -0.1698   -1.8074    1.1612 H   0  0  0  0  0  0  0  0  0  0  0  0 
   -2.6606   -0.6230   -1.8304 H   0  0  0  0  0  0  0  0  0  0  0  0 
   -2.3341   -1.7088   -0.4487 H   0  0  0  0  0  0  0  0  0  0  0  0 
   -3.4789    0.0818    0.7586 H   0  0  0  0  0  0  0  0  0  0  0  0 
   -2.8389    1.3224   -0.3571 H   0  0  0  0  0  0  0  0  0  0  0  0 
  1  3  1  0  0  0  0 
  1 11  1  0  0  0  0 
  2  4  1  0  0  0  0 
  2  1  1  0  0  0  0 
  3 15  1  0  0  0  0 
  3  5  1  0  0  0  0 
  4  8  1  0  0  0  0 
  4 18  1  0  0  0  0 
  5 20  1  0  0  0  0 
  5 19  1  0  0  0  0 
  6 22  1  0  0  0  0 
  6  7  1  0  0  0  0 
  7 23  1  0  0  0  0 
  7 10  1  0  0  0  0 
  8 10  1  0  0  0  0 
  8  5  1  0  0  0  0 
  9  6  1  0  0  0  0 
  9  8  1  0  0  0  0 
 12  1  1  0  0  0  0 
 13  2  1  0  0  0  0 
 14  2  1  0  0  0  0 
 16  3  1  0  0  0  0 
 17  4  1  0  0  0  0 
 21  6  1  0  0  0  0 
 24  7  1  0  0  0  0 
M  END 
>  <HBA> 
2 
 
>  <HBD> 
0 
 
>  <TPSA> 
18.46 
 
>  <cid> 
9093 
 
>  <dipole> 
0.89 
 
>  <excitation_energy_1> 
6.243 
 
>  <excitation_energy_2> 
6.505 
 
>  <excitation_energy_3> 
6.672 
 
>  <excitation_energy_4> 
6.778 
 
>  <homo_energy> 
-6.572 
 
>  <homo_lumo_gap> 
8.8 
 
>  <logP> 
1.694 
 
>  <lumo_energy> 
2.229 
 
>  <melting_point> 
10.39 
 
>  <molecular_refractivity> 
38.55 
 
>  <oscillator_strength_1> 
0.0012 
 
>  <oscillator_strength_2> 
0.0034 
 
>  <oscillator_strength_3> 
0.0032 
 
>  <oscillator_strength_4> 
0.0015 
 
>  <open_babel_can_smiles> 
C1CCC2(CC1)OCCO2 
 
>  <mulliken_charges> 
24 
1   -0.261287 
2   -0.267101 
3   -0.265568 
4   -0.271528 
5   -0.27098 
6   -0.047902 
7   -0.044439 
8   0.53979 
9   -0.513489 
10   -0.524786 
11   0.126886 
12   0.131164 
13   0.149071 
14   0.130151 
15   0.130068 
16   0.146205 
17   0.134932 
18   0.13832 
19   0.138899 
20   0.132864 
21   0.149632 
22   0.135507 
23   0.147649 
24   0.135943 
 
>  <lowdin_charges> 
24 
1   -0.278667 
2   -0.279478 
3   -0.281648 
4   -0.290589 
5   -0.291046 
6   -0.142516 
7   -0.143558 
8   0.212965 
9   -0.274542 
10   -0.26985 
11   0.136572 
12   0.144874 
13   0.147802 
14   0.144614 
15   0.14571 
16   0.147264 
17   0.151621 
18   0.148838 
19   0.148884 
20   0.149398 
21   0.153002 
22   0.133024 
23   0.152625 
24   0.134701 
 
$$$$ 
 
