PCCDB-ID:  17079 
public computational chemistry database (PCCDB) project, http://pccdb.org 
 
 20 19  0  0  0  0  0  0  0  0999 V2000 
    1.0662    0.1061    0.0438 C   0  0  0  0  0  0  0  0  0  0  0  0 
    0.5965   -0.0991    1.4881 C   0  0  0  0  0  0  0  0  0  0  0  0 
    2.5923    0.0628   -0.0992 C   0  0  0  0  0  0  0  0  0  0  0  0 
   -0.9423   -0.0588    1.6042 C   0  0  0  0  0  0  0  0  0  0  0  0 
    3.0784    0.2206   -1.5447 C   0  0  0  0  0  0  0  0  0  0  0  0 
   -1.4143   -0.2551    2.9782 C   0  0  0  0  0  0  0  0  0  0  0  0 
    2.5694   -0.8644   -2.3941 N   0  0  0  0  0  0  0  0  0  0  0  0 
   -1.7675   -0.4119    4.0729 N   0  0  0  0  0  0  0  0  0  0  0  0 
    0.6981    1.0751   -0.3255 H   0  0  0  0  0  0  0  0  0  0  0  0 
    0.6283   -0.6576   -0.6096 H   0  0  0  0  0  0  0  0  0  0  0  0 
    1.0240    0.6720    2.1414 H   0  0  0  0  0  0  0  0  0  0  0  0 
    0.9562   -1.0638    1.8678 H   0  0  0  0  0  0  0  0  0  0  0  0 
    2.9721   -0.8888    0.3038 H   0  0  0  0  0  0  0  0  0  0  0  0 
    3.0484    0.8544    0.5114 H   0  0  0  0  0  0  0  0  0  0  0  0 
   -1.3892   -0.8339    0.9688 H   0  0  0  0  0  0  0  0  0  0  0  0 
   -1.3250    0.9035    1.2408 H   0  0  0  0  0  0  0  0  0  0  0  0 
    4.1802    0.3036   -1.5415 H   0  0  0  0  0  0  0  0  0  0  0  0 
    2.6959    1.1655   -1.9527 H   0  0  0  0  0  0  0  0  0  0  0  0 
    3.0226   -1.7402   -2.1333 H   0  0  0  0  0  0  0  0  0  0  0  0 
    2.8270   -0.6943   -3.3647 H   0  0  0  0  0  0  0  0  0  0  0  0 
  1  2  1  0  0  0  0 
  2  4  1  0  0  0  0 
  2 12  1  0  0  0  0 
  2 11  1  0  0  0  0 
  3  1  1  0  0  0  0 
  3 13  1  0  0  0  0 
  3 14  1  0  0  0  0 
  4  6  1  0  0  0  0 
  5 17  1  0  0  0  0 
  5  3  1  0  0  0  0 
  6  8  3  0  0  0  0 
  7 19  1  0  0  0  0 
  7  5  1  0  0  0  0 
  9  1  1  0  0  0  0 
 10  1  1  0  0  0  0 
 15  4  1  0  0  0  0 
 16  4  1  0  0  0  0 
 18  5  1  0  0  0  0 
 20  7  1  0  0  0  0 
M  END 
>  <HBA> 
2 
 
>  <HBD> 
1 
 
>  <TPSA> 
49.81 
 
>  <cid> 
17079 
 
>  <dipole> 
5.32 
 
>  <excitation_energy_1> 
5.671 
 
>  <excitation_energy_2> 
6.417 
 
>  <excitation_energy_3> 
6.456 
 
>  <excitation_energy_4> 
6.553 
 
>  <homo_energy> 
-6.528 
 
>  <homo_lumo_gap> 
7.633 
 
>  <logP> 
1.729 
 
>  <lumo_energy> 
1.105 
 
>  <melting_point> 
61.59 
 
>  <molecular_refractivity> 
33.41 
 
>  <oscillator_strength_1> 
0.0095 
 
>  <oscillator_strength_2> 
0.0016 
 
>  <oscillator_strength_3> 
0.0254 
 
>  <oscillator_strength_4> 
0.0151 
 
>  <open_babel_can_smiles> 
NCCCCCC#N 
 
>  <mulliken_charges> 
20 
1   -0.247502 
2   -0.263389 
3   -0.257902 
4   -0.340983 
5   -0.139352 
6   0.347531 
7   -0.713593 
8   -0.476728 
9   0.127835 
10   0.163677 
11   0.153377 
12   0.154487 
13   0.128039 
14   0.133307 
15   0.19194 
16   0.189818 
17   0.11751 
18   0.139088 
19   0.293273 
20   0.299567 
 
>  <lowdin_charges> 
20 
1   -0.27811 
2   -0.26636 
3   -0.279846 
4   -0.275011 
5   -0.202006 
6   -0.017785 
7   -0.558244 
8   -0.133934 
9   0.139139 
10   0.157188 
11   0.152245 
12   0.151942 
13   0.138231 
14   0.145175 
15   0.180786 
16   0.178487 
17   0.118851 
18   0.141384 
19   0.252047 
20   0.255822 
 
$$$$ 
 
