PCCDB-ID:  14151 
public computational chemistry database (PCCDB) project, http://pccdb.org 
 
 34 35  0  0  0  0  0  0  0  0999 V2000 
    4.3838    1.4235    5.1418 C   0  0  0  0  0  0  0  0  0  0  0  0 
   -3.2074   -0.4437    2.8265 C   0  0  0  0  0  0  0  0  0  0  0  0 
    5.1880    0.4509    4.5424 C   0  0  0  0  0  0  0  0  0  0  0  0 
    3.3714    2.0330    4.4007 C   0  0  0  0  0  0  0  0  0  0  0  0 
   -2.5795   -0.0642    1.6368 C   0  0  0  0  0  0  0  0  0  0  0  0 
   -2.6253   -1.4233    3.6309 C   0  0  0  0  0  0  0  0  0  0  0  0 
    4.9832    0.0937    3.2106 C   0  0  0  0  0  0  0  0  0  0  0  0 
    3.1676    1.6745    3.0662 C   0  0  0  0  0  0  0  0  0  0  0  0 
   -1.3807   -0.6637    1.2542 C   0  0  0  0  0  0  0  0  0  0  0  0 
   -1.4218   -2.0192    3.2463 C   0  0  0  0  0  0  0  0  0  0  0  0 
    3.7616    0.3362    0.9904 C   0  0  0  0  0  0  0  0  0  0  0  0 
    0.5045   -2.3134    1.6266 C   0  0  0  0  0  0  0  0  0  0  0  0 
    3.9733    0.7064    2.4543 C   0  0  0  0  0  0  0  0  0  0  0  0 
   -0.7883   -1.6522    2.0540 C   0  0  0  0  0  0  0  0  0  0  0  0 
    3.7184   -1.1567    0.7390 C   0  0  0  0  0  0  0  0  0  0  0  0 
    1.5211   -1.3006    1.3152 N   0  0  0  0  0  0  0  0  0  0  0  0 
    2.7063   -1.9171    0.8804 N   0  0  0  0  0  0  0  0  0  0  0  0 
    4.8916   -1.7729    0.3778 O   0  0  0  0  0  0  0  0  0  0  0  0 
    4.5424    1.6993    6.1807 H   0  0  0  0  0  0  0  0  0  0  0  0 
   -4.1434    0.0223    3.1232 H   0  0  0  0  0  0  0  0  0  0  0  0 
    5.9741   -0.0344    5.1147 H   0  0  0  0  0  0  0  0  0  0  0  0 
    2.7358    2.7855    4.8597 H   0  0  0  0  0  0  0  0  0  0  0  0 
   -3.0275    0.6993    1.0057 H   0  0  0  0  0  0  0  0  0  0  0  0 
   -3.1041   -1.7231    4.5595 H   0  0  0  0  0  0  0  0  0  0  0  0 
    5.6013   -0.6754    2.7546 H   0  0  0  0  0  0  0  0  0  0  0  0 
    2.3761    2.1524    2.4929 H   0  0  0  0  0  0  0  0  0  0  0  0 
   -0.8865   -0.3651    0.3339 H   0  0  0  0  0  0  0  0  0  0  0  0 
   -0.9689   -2.7794    3.8792 H   0  0  0  0  0  0  0  0  0  0  0  0 
    4.5562    0.7859    0.3757 H   0  0  0  0  0  0  0  0  0  0  0  0 
    2.8141    0.7603    0.6385 H   0  0  0  0  0  0  0  0  0  0  0  0 
    0.3568   -2.8976    0.7109 H   0  0  0  0  0  0  0  0  0  0  0  0 
    0.8439   -3.0187    2.4013 H   0  0  0  0  0  0  0  0  0  0  0  0 
    1.6828   -0.7225    2.1423 H   0  0  0  0  0  0  0  0  0  0  0  0 
    5.4992   -1.0999    0.0360 H   0  0  0  0  0  0  0  0  0  0  0  0 
  1 19  1  0  0  0  0 
  2 20  1  0  0  0  0 
  2  6  2  0  0  0  0 
  3 21  1  0  0  0  0 
  3  1  1  0  0  0  0 
  4 22  1  0  0  0  0 
  4  1  2  0  0  0  0 
  5  2  1  0  0  0  0 
  6 24  1  0  0  0  0 
  7  3  2  0  0  0  0 
  8  4  1  0  0  0  0 
  9  5  2  0  0  0  0 
  9 14  1  0  0  0  0 
 10  6  1  0  0  0  0 
 10 28  1  0  0  0  0 
 11 13  1  0  0  0  0 
 12 14  1  0  0  0  0 
 12 32  1  0  0  0  0 
 13  8  2  0  0  0  0 
 13  7  1  0  0  0  0 
 14 10  2  0  0  0  0 
 15 17  2  0  0  0  0 
 15 11  1  0  0  0  0 
 16 12  1  0  0  0  0 
 16 33  1  0  0  0  0 
 17 16  1  0  0  0  0 
 18 15  1  0  0  0  0 
 23  5  1  0  0  0  0 
 25  7  1  0  0  0  0 
 26  8  1  0  0  0  0 
 27  9  1  0  0  0  0 
 29 11  1  0  0  0  0 
 30 11  1  0  0  0  0 
 31 12  1  0  0  0  0 
 34 18  1  0  0  0  0 
M  END 
>  <HBA> 
3 
 
>  <HBD> 
2 
 
>  <TPSA> 
41.13 
 
>  <cid> 
14151 
 
>  <dipole> 
3.32 
 
>  <excitation_energy_1> 
4.222 
 
>  <excitation_energy_2> 
4.412 
 
>  <excitation_energy_3> 
4.581 
 
>  <excitation_energy_4> 
4.768 
 
>  <homo_energy> 
-5.393 
 
>  <homo_lumo_gap> 
5.064 
 
>  <logP> 
2.832 
 
>  <lumo_energy> 
-0.329 
 
>  <melting_point> 
111.96 
 
>  <molecular_refractivity> 
71.31 
 
>  <oscillator_strength_1> 
0.0222 
 
>  <oscillator_strength_2> 
0.0147 
 
>  <oscillator_strength_3> 
0.0087 
 
>  <oscillator_strength_4> 
0.0135 
 
>  <open_babel_can_smiles> 
O/C(=N/NCc1ccccc1)/Cc1ccccc1 
 
>  <mulliken_charges> 
34 
1   -0.128768 
2   -0.129196 
3   -0.12898 
4   -0.12598 
5   -0.131281 
6   -0.128774 
7   -0.178281 
8   -0.194335 
9   -0.162697 
10   -0.185536 
11   -0.454901 
12   -0.174259 
13   0.166521 
14   0.12808 
15   0.498563 
16   -0.461004 
17   -0.299303 
18   -0.591596 
19   0.133275 
20   0.126807 
21   0.135248 
22   0.134965 
23   0.12703 
24   0.127628 
25   0.140299 
26   0.133847 
27   0.138921 
28   0.125952 
29   0.148826 
30   0.188161 
31   0.168864 
32   0.136217 
33   0.312337 
34   0.40335 
 
>  <lowdin_charges> 
34 
1   -0.155178 
2   -0.159039 
3   -0.151608 
4   -0.153095 
5   -0.158397 
6   -0.157644 
7   -0.166656 
8   -0.172718 
9   -0.157904 
10   -0.167674 
11   -0.307077 
12   -0.198124 
13   -0.009957 
14   -0.01566 
15   0.096354 
16   -0.277757 
17   -0.142389 
18   -0.377962 
19   0.158377 
20   0.156217 
21   0.161412 
22   0.16147 
23   0.157141 
24   0.156761 
25   0.163256 
26   0.159948 
27   0.163211 
28   0.156494 
29   0.157494 
30   0.174072 
31   0.161136 
32   0.136384 
33   0.255203 
34   0.353911 
 
$$$$ 
 
