PCCDB-ID:  72073 
public computational chemistry database (PCCDB) project, http://pccdb.org 
 
 18 19  0  0  0  0  0  0  0  0999 V2000 
   -2.3752   -0.7478   -0.0258 C   0  0  0  0  0  0  0  0  0  0  0  0 
   -2.3968    0.6644   -0.0259 C   0  0  0  0  0  0  0  0  0  0  0  0 
   -1.1763   -1.4333   -0.0178 C   0  0  0  0  0  0  0  0  0  0  0  0 
   -1.2195    1.3864   -0.0172 C   0  0  0  0  0  0  0  0  0  0  0  0 
    2.3810   -0.6630    0.0092 C   0  0  0  0  0  0  0  0  0  0  0  0 
    2.3597    0.7257    0.0106 C   0  0  0  0  0  0  0  0  0  0  0  0 
    0.0294   -0.7111   -0.0078 C   0  0  0  0  0  0  0  0  0  0  0  0 
    0.0078    0.7016   -0.0070 C   0  0  0  0  0  0  0  0  0  0  0  0 
    1.2522   -1.4063    0.0004 N   0  3  0  0  0  0  0  0  0  0  0  0 
    1.2086    1.4340    0.0039 N   0  3  0  0  0  0  0  0  0  0  0  0 
    1.2765   -2.6815    0.0001 O   0  5  0  0  0  0  0  0  0  0  0  0 
    1.1936    2.7094    0.0066 O   0  5  0  0  0  0  0  0  0  0  0  0 
   -3.3096   -1.3008   -0.0323 H   0  0  0  0  0  0  0  0  0  0  0  0 
   -3.3477    1.1885   -0.0339 H   0  0  0  0  0  0  0  0  0  0  0  0 
   -1.1147   -2.5145   -0.0183 H   0  0  0  0  0  0  0  0  0  0  0  0 
   -1.1910    2.4690   -0.0164 H   0  0  0  0  0  0  0  0  0  0  0  0 
    3.3021   -1.2289    0.0150 H   0  0  0  0  0  0  0  0  0  0  0  0 
    3.2631    1.3196    0.0181 H   0  0  0  0  0  0  0  0  0  0  0  0 
  1  3  1  0  0  0  0 
  2  1  2  0  0  0  0 
  2  4  1  0  0  0  0 
  3  7  2  0  0  0  0 
  4 16  1  0  0  0  0 
  4  8  2  0  0  0  0 
  5  6  1  0  0  0  0 
  5 17  1  0  0  0  0 
  6 18  1  0  0  0  0 
  7  8  1  0  0  0  0 
  7  9  1  0  0  0  0 
  8 10  1  0  0  0  0 
  9  5  2  0  0  0  0 
 10 12  1  0  0  0  0 
 10  6  2  0  0  0  0 
 11  9  1  0  0  0  0 
 13  1  1  0  0  0  0 
 14  2  1  0  0  0  0 
 15  3  1  0  0  0  0 
M  CHG  4   9   1  10   1  11  -1  12  -1 
M  END 
>  <HBA> 
3 
 
>  <HBD> 
0 
 
>  <TPSA> 
53.45 
 
>  <cid> 
72073 
 
>  <dipole> 
1.37 
 
>  <excitation_energy_1> 
3.186 
 
>  <excitation_energy_2> 
3.551 
 
>  <excitation_energy_3> 
3.57 
 
>  <excitation_energy_4> 
3.594 
 
>  <homo_energy> 
-5.54 
 
>  <homo_lumo_gap> 
3.17 
 
>  <logP> 
0.902 
 
>  <lumo_energy> 
-2.37 
 
>  <melting_point> 
62.77 
 
>  <molecular_refractivity> 
46.2 
 
>  <oscillator_strength_1> 
0.1542 
 
>  <oscillator_strength_2> 
0.0 
 
>  <oscillator_strength_3> 
0.0325 
 
>  <oscillator_strength_4> 
0.0 
 
>  <open_babel_can_smiles> 
[O-][n+]1cc[n+](c2c1cccc2)[O-] 
 
>  <mulliken_charges> 
18 
1   -0.127896 
2   -0.127959 
3   -0.150168 
4   -0.150169 
5   0.028904 
6   0.028797 
7   0.29527 
8   0.295207 
9   -0.078491 
10   -0.078496 
11   -0.507581 
12   -0.507601 
13   0.152781 
14   0.15275 
15   0.189897 
16   0.189951 
17   0.19739 
18   0.197411 
 
>  <lowdin_charges> 
18 
1   -0.137934 
2   -0.137739 
3   -0.140294 
4   -0.14021 
5   -0.132024 
6   -0.132048 
7   0.020063 
8   0.019846 
9   0.202325 
10   0.202303 
11   -0.369638 
12   -0.369643 
13   0.170228 
14   0.170051 
15   0.191102 
16   0.191079 
17   0.196191 
18   0.196344 
 
$$$$ 
 
