PCCDB-ID:  69082 
public computational chemistry database (PCCDB) project, http://pccdb.org 
 
 30 31  0  0  0  0  0  0  0  0999 V2000 
    0.9047   -0.3300    0.3964 C   0  0  0  0  0  0  0  0  0  0  0  0 
    2.4254   -0.2850    0.2007 C   0  0  0  0  0  0  0  0  0  0  0  0 
    2.6365   -3.2309    4.6433 C   0  0  0  0  0  0  0  0  0  0  0  0 
    7.8532    0.1240    0.6749 C   0  0  0  0  0  0  0  0  0  0  0  0 
    1.9608   -2.0228    4.8150 C   0  0  0  0  0  0  0  0  0  0  0  0 
    3.5447   -3.3740    3.5908 C   0  0  0  0  0  0  0  0  0  0  0  0 
    7.4119    0.5050    1.9450 C   0  0  0  0  0  0  0  0  0  0  0  0 
    6.9193   -0.2142   -0.3032 C   0  0  0  0  0  0  0  0  0  0  0  0 
    2.1943   -0.9612    3.9373 C   0  0  0  0  0  0  0  0  0  0  0  0 
    3.7712   -2.3154    2.7116 C   0  0  0  0  0  0  0  0  0  0  0  0 
    6.0485    0.5490    2.2272 C   0  0  0  0  0  0  0  0  0  0  0  0 
    5.5517   -0.1817   -0.0149 C   0  0  0  0  0  0  0  0  0  0  0  0 
    3.0957   -1.0942    2.8701 C   0  0  0  0  0  0  0  0  0  0  0  0 
    5.0933    0.1959    1.2563 C   0  0  0  0  0  0  0  0  0  0  0  0 
    3.3086    0.3567    1.7289 P   0  0  0  0  0  0  0  0  0  0  0  0 
    0.4090   -0.6809   -0.5161 H   0  0  0  0  0  0  0  0  0  0  0  0 
    0.5040    0.6614    0.6360 H   0  0  0  0  0  0  0  0  0  0  0  0 
    0.6272   -1.0099    1.2089 H   0  0  0  0  0  0  0  0  0  0  0  0 
    2.6721    0.3985   -0.6215 H   0  0  0  0  0  0  0  0  0  0  0  0 
    2.8021   -1.2782   -0.0743 H   0  0  0  0  0  0  0  0  0  0  0  0 
    2.4621   -4.0563    5.3286 H   0  0  0  0  0  0  0  0  0  0  0  0 
    8.9161    0.0960    0.4503 H   0  0  0  0  0  0  0  0  0  0  0  0 
    1.2579   -1.9020    5.6353 H   0  0  0  0  0  0  0  0  0  0  0  0 
    4.0779   -4.3118    3.4560 H   0  0  0  0  0  0  0  0  0  0  0  0 
    8.1310    0.7751    2.7141 H   0  0  0  0  0  0  0  0  0  0  0  0 
    7.2514   -0.5104   -1.2951 H   0  0  0  0  0  0  0  0  0  0  0  0 
    1.6758   -0.0166    4.0834 H   0  0  0  0  0  0  0  0  0  0  0  0 
    4.4871   -2.4339    1.9024 H   0  0  0  0  0  0  0  0  0  0  0  0 
    5.7175    0.8604    3.2155 H   0  0  0  0  0  0  0  0  0  0  0  0 
    4.8475   -0.4560   -0.7939 H   0  0  0  0  0  0  0  0  0  0  0  0 
  1 17  1  0  0  0  0 
  1 18  1  0  0  0  0 
  2  1  1  0  0  0  0 
  2 15  1  0  0  0  0 
  3  5  1  0  0  0  0 
  3 21  1  0  0  0  0 
  4  7  2  0  0  0  0 
  5 23  1  0  0  0  0 
  6  3  2  0  0  0  0 
  7 11  1  0  0  0  0 
  7 25  1  0  0  0  0 
  8 12  2  0  0  0  0 
  8  4  1  0  0  0  0 
  9 27  1  0  0  0  0 
  9  5  2  0  0  0  0 
 10 13  2  0  0  0  0 
 10  6  1  0  0  0  0 
 11 29  1  0  0  0  0 
 12 14  1  0  0  0  0 
 13  9  1  0  0  0  0 
 14 15  1  0  0  0  0 
 14 11  2  0  0  0  0 
 15 13  1  0  0  0  0 
 16  1  1  0  0  0  0 
 19  2  1  0  0  0  0 
 20  2  1  0  0  0  0 
 22  4  1  0  0  0  0 
 24  6  1  0  0  0  0 
 26  8  1  0  0  0  0 
 28 10  1  0  0  0  0 
 30 12  1  0  0  0  0 
M  END 
>  <HBA> 
0 
 
>  <HBD> 
0 
 
>  <TPSA> 
13.59 
 
>  <cid> 
69082 
 
>  <dipole> 
1.38 
 
>  <excitation_energy_1> 
4.463 
 
>  <excitation_energy_2> 
4.727 
 
>  <excitation_energy_3> 
4.778 
 
>  <excitation_energy_4> 
4.962 
 
>  <homo_energy> 
-5.812 
 
>  <homo_lumo_gap> 
5.385 
 
>  <logP> 
3.139 
 
>  <lumo_energy> 
-0.427 
 
>  <melting_point> 
47.15 
 
>  <molecular_refractivity> 
69.74 
 
>  <oscillator_strength_1> 
0.056 
 
>  <oscillator_strength_2> 
0.04 
 
>  <oscillator_strength_3> 
0.109 
 
>  <oscillator_strength_4> 
0.0166 
 
>  <open_babel_can_smiles> 
CCP(c1ccccc1)c1ccccc1 
 
>  <mulliken_charges> 
30 
1   -0.45585 
2   -0.445916 
3   -0.131911 
4   -0.133981 
5   -0.11971 
6   -0.12028 
7   -0.117688 
8   -0.11761 
9   -0.172165 
10   -0.153883 
11   -0.168599 
12   -0.17825 
13   -0.085226 
14   -0.08444 
15   0.365606 
16   0.147675 
17   0.157919 
18   0.160633 
19   0.15943 
20   0.159978 
21   0.131401 
22   0.130404 
23   0.131084 
24   0.130938 
25   0.131152 
26   0.129125 
27   0.139816 
28   0.140458 
29   0.139281 
30   0.130609 
 
>  <lowdin_charges> 
30 
1   -0.444332 
2   -0.427741 
3   -0.152696 
4   -0.154178 
5   -0.157986 
6   -0.156644 
7   -0.156273 
8   -0.15572 
9   -0.155727 
10   -0.150434 
11   -0.1497 
12   -0.168972 
13   -0.157127 
14   -0.15446 
15   0.367143 
16   0.152303 
17   0.155021 
18   0.157747 
19   0.161356 
20   0.151779 
21   0.158839 
22   0.156245 
23   0.158609 
24   0.157919 
25   0.159605 
26   0.156672 
27   0.163398 
28   0.163067 
29   0.162788 
30   0.159497 
 
$$$$ 
 
