PCCDB-ID:  68102 
public computational chemistry database (PCCDB) project, http://pccdb.org 
 
 25 25  0  0  0  0  0  0  0  0999 V2000 
    1.0429    0.0850   -0.0380 C   0  0  0  0  0  0  0  0  0  0  0  0 
    2.4965   -2.5206   -0.0368 C   0  0  0  0  0  0  0  0  0  0  0  0 
    5.4472   -2.5032   -0.0501 C   0  0  0  0  0  0  0  0  0  0  0  0 
    6.8973    0.1009   -0.0607 C   0  0  0  0  0  0  0  0  0  0  0  0 
    3.2740    1.2144   -0.0466 C   0  0  0  0  0  0  0  0  0  0  0  0 
    2.5564    0.0156   -0.0424 C   0  0  0  0  0  0  0  0  0  0  0  0 
    3.2567   -1.2070   -0.0428 C   0  0  0  0  0  0  0  0  0  0  0  0 
    4.6719   -1.1985   -0.0490 C   0  0  0  0  0  0  0  0  0  0  0  0 
    5.3885    0.0132   -0.0542 C   0  0  0  0  0  0  0  0  0  0  0  0 
    4.6649    1.2132   -0.0526 C   0  0  0  0  0  0  0  0  0  0  0  0 
    5.3934    2.3790   -0.0565 O   0  0  0  0  0  0  0  0  0  0  0  0 
    0.7050    1.1261   -0.0405 H   0  0  0  0  0  0  0  0  0  0  0  0 
    0.6089   -0.3970    0.8469 H   0  0  0  0  0  0  0  0  0  0  0  0 
    0.6038   -0.4029   -0.9171 H   0  0  0  0  0  0  0  0  0  0  0  0 
    1.4166   -2.3646   -0.0206 H   0  0  0  0  0  0  0  0  0  0  0  0 
    2.7430   -3.1344    0.8389 H   0  0  0  0  0  0  0  0  0  0  0  0 
    2.7177   -3.1280   -0.9239 H   0  0  0  0  0  0  0  0  0  0  0  0 
    4.7931   -3.3753   -0.0502 H   0  0  0  0  0  0  0  0  0  0  0  0 
    6.0972   -2.5846    0.8300 H   0  0  0  0  0  0  0  0  0  0  0  0 
    6.0952   -2.5840   -0.9317 H   0  0  0  0  0  0  0  0  0  0  0  0 
    7.3752   -0.8795   -0.0800 H   0  0  0  0  0  0  0  0  0  0  0  0 
    7.2615    0.6388    0.8234 H   0  0  0  0  0  0  0  0  0  0  0  0 
    7.2513    0.6691   -0.9296 H   0  0  0  0  0  0  0  0  0  0  0  0 
    2.7375    2.1629   -0.0443 H   0  0  0  0  0  0  0  0  0  0  0  0 
    4.7762    3.1266   -0.0635 H   0  0  0  0  0  0  0  0  0  0  0  0 
  1 13  1  0  0  0  0 
  2 15  1  0  0  0  0 
  2 16  1  0  0  0  0 
  3  8  1  0  0  0  0 
  3 19  1  0  0  0  0 
  4  9  1  0  0  0  0 
  4 22  1  0  0  0  0 
  5 24  1  0  0  0  0 
  5  6  2  0  0  0  0 
  6  1  1  0  0  0  0 
  7  6  1  0  0  0  0 
  7  2  1  0  0  0  0 
  8  7  2  0  0  0  0 
  9 10  2  0  0  0  0 
  9  8  1  0  0  0  0 
 10  5  1  0  0  0  0 
 11 10  1  0  0  0  0 
 12  1  1  0  0  0  0 
 14  1  1  0  0  0  0 
 17  2  1  0  0  0  0 
 18  3  1  0  0  0  0 
 20  3  1  0  0  0  0 
 21  4  1  0  0  0  0 
 23  4  1  0  0  0  0 
 25 11  1  0  0  0  0 
M  END 
>  <HBA> 
1 
 
>  <HBD> 
1 
 
>  <TPSA> 
20.23 
 
>  <cid> 
68102 
 
>  <dipole> 
1.11 
 
>  <excitation_energy_1> 
4.821 
 
>  <excitation_energy_2> 
4.859 
 
>  <excitation_energy_3> 
5.295 
 
>  <excitation_energy_4> 
5.457 
 
>  <homo_energy> 
-5.453 
 
>  <homo_lumo_gap> 
5.78 
 
>  <logP> 
2.626 
 
>  <lumo_energy> 
0.327 
 
>  <melting_point> 
62.64 
 
>  <molecular_refractivity> 
48.33 
 
>  <oscillator_strength_1> 
0.0003 
 
>  <oscillator_strength_2> 
0.0412 
 
>  <oscillator_strength_3> 
0.0011 
 
>  <oscillator_strength_4> 
0.005 
 
>  <open_babel_can_smiles> 
Cc1c(C)cc(c(c1C)C)O 
 
>  <mulliken_charges> 
25 
1   -0.542144 
2   -0.545752 
3   -0.542467 
4   -0.516485 
5   -0.260248 
6   0.133488 
7   0.075466 
8   0.060788 
9   0.08128 
10   0.309598 
11   -0.651724 
12   0.150182 
13   0.160486 
14   0.160469 
15   0.152475 
16   0.157498 
17   0.157413 
18   0.154811 
19   0.160954 
20   0.16102 
21   0.146306 
22   0.164277 
23   0.164686 
24   0.102675 
25   0.404946 
 
>  <lowdin_charges> 
25 
1   -0.443892 
2   -0.447413 
3   -0.449295 
4   -0.443173 
5   -0.229224 
6   -0.003754 
7   -0.040034 
8   -0.008096 
9   -0.041302 
10   0.09095 
11   -0.386988 
12   0.152752 
13   0.15847 
14   0.158552 
15   0.156321 
16   0.156376 
17   0.156222 
18   0.160049 
19   0.159501 
20   0.159473 
21   0.155348 
22   0.163193 
23   0.16355 
24   0.146068 
25   0.356345 
 
$$$$ 
 
