PCCDB-ID:  36320 
public computational chemistry database (PCCDB) project, http://pccdb.org 
 
 28 29  0  0  0  0  0  0  0  0999 V2000 
    1.9971    0.9543   -0.3605 C   0  0  0  0  0  0  0  0  0  0  0  0 
    3.8332   -1.7633   -6.7855 C   0  0  0  0  0  0  0  0  0  0  0  0 
    3.6132   -3.1461   -6.1551 C   0  0  0  0  0  0  0  0  0  0  0  0 
    3.3513   -0.5612   -5.9602 C   0  0  0  0  0  0  0  0  0  0  0  0 
    4.3647   -3.3822   -4.8274 C   0  0  0  0  0  0  0  0  0  0  0  0 
    4.0705   -0.3653   -4.6077 C   0  0  0  0  0  0  0  0  0  0  0  0 
    3.7599   -2.6920   -3.6260 C   0  0  0  0  0  0  0  0  0  0  0  0 
    3.6210   -1.3051   -3.5125 C   0  0  0  0  0  0  0  0  0  0  0  0 
    3.2794   -3.4166   -2.5181 C   0  0  0  0  0  0  0  0  0  0  0  0 
    2.6599   -1.5215   -1.4537 C   0  0  0  0  0  0  0  0  0  0  0  0 
    3.0716   -0.7154   -2.4275 N   0  0  0  0  0  0  0  0  0  0  0  0 
    2.7343   -2.8590   -1.4424 N   0  0  0  0  0  0  0  0  0  0  0  0 
    3.3656   -4.7644   -2.5217 O   0  0  0  0  0  0  0  0  0  0  0  0 
    1.9264   -0.8313    0.0095 S   0  0  0  0  0  0  0  0  0  0  0  0 
    1.5604    1.4559    0.5073 H   0  0  0  0  0  0  0  0  0  0  0  0 
    1.4191    1.1890   -1.2557 H   0  0  0  0  0  0  0  0  0  0  0  0 
    3.0285    1.2817   -0.4996 H   0  0  0  0  0  0  0  0  0  0  0  0 
    3.3309   -1.7395   -7.7618 H   0  0  0  0  0  0  0  0  0  0  0  0 
    4.9069   -1.6385   -6.9933 H   0  0  0  0  0  0  0  0  0  0  0  0 
    3.9477   -3.9056   -6.8740 H   0  0  0  0  0  0  0  0  0  0  0  0 
    2.5402   -3.3207   -5.9973 H   0  0  0  0  0  0  0  0  0  0  0  0 
    2.2689   -0.6323   -5.7866 H   0  0  0  0  0  0  0  0  0  0  0  0 
    3.5077    0.3471   -6.5562 H   0  0  0  0  0  0  0  0  0  0  0  0 
    5.4102   -3.0605   -4.9513 H   0  0  0  0  0  0  0  0  0  0  0  0 
    4.4001   -4.4555   -4.6249 H   0  0  0  0  0  0  0  0  0  0  0  0 
    3.9008    0.6507   -4.2410 H   0  0  0  0  0  0  0  0  0  0  0  0 
    5.1546   -0.4753   -4.7622 H   0  0  0  0  0  0  0  0  0  0  0  0 
    2.9834   -5.0560   -1.6735 H   0  0  0  0  0  0  0  0  0  0  0  0 
  1 14  1  0  0  0  0 
  1 15  1  0  0  0  0 
  2  3  1  0  0  0  0 
  2  4  1  0  0  0  0 
  3 21  1  0  0  0  0 
  3  5  1  0  0  0  0 
  4 22  1  0  0  0  0 
  4  6  1  0  0  0  0 
  5 25  1  0  0  0  0 
  5  7  1  0  0  0  0 
  6 26  1  0  0  0  0 
  6  8  1  0  0  0  0 
  7  8  2  0  0  0  0 
  7  9  1  0  0  0  0 
  8 11  1  0  0  0  0 
  9 12  2  0  0  0  0 
 10 12  1  0  0  0  0 
 10 14  1  0  0  0  0 
 11 10  2  0  0  0  0 
 13  9  1  0  0  0  0 
 13 28  1  0  0  0  0 
 16  1  1  0  0  0  0 
 17  1  1  0  0  0  0 
 18  2  1  0  0  0  0 
 19  2  1  0  0  0  0 
 20  3  1  0  0  0  0 
 23  4  1  0  0  0  0 
 24  5  1  0  0  0  0 
 27  6  1  0  0  0  0 
M  END 
>  <HBA> 
3 
 
>  <HBD> 
1 
 
>  <TPSA> 
71.05 
 
>  <cid> 
36320 
 
>  <dipole> 
2.14 
 
>  <excitation_energy_1> 
4.446 
 
>  <excitation_energy_2> 
4.886 
 
>  <excitation_energy_3> 
5.08 
 
>  <excitation_energy_4> 
5.289 
 
>  <homo_energy> 
-5.919 
 
>  <homo_lumo_gap> 
5.244 
 
>  <logP> 
1.761 
 
>  <lumo_energy> 
-0.675 
 
>  <melting_point> 
144.62 
 
>  <molecular_refractivity> 
58.82 
 
>  <oscillator_strength_1> 
0.0685 
 
>  <oscillator_strength_2> 
0.002 
 
>  <oscillator_strength_3> 
0.3206 
 
>  <oscillator_strength_4> 
0.0012 
 
>  <open_babel_can_smiles> 
CSc1nc2CCCCCc2c(n1)O 
 
>  <mulliken_charges> 
28 
1   -0.576886 
2   -0.259946 
3   -0.249818 
4   -0.259557 
5   -0.358146 
6   -0.337508 
7   0.103589 
8   0.250906 
9   0.466346 
10   0.254882 
11   -0.495552 
12   -0.510061 
13   -0.613728 
14   0.1504 
15   0.175539 
16   0.194271 
17   0.194781 
18   0.135169 
19   0.12841 
20   0.136383 
21   0.138836 
22   0.142985 
23   0.13962 
24   0.146286 
25   0.172945 
26   0.162587 
27   0.149371 
28   0.417895 
 
>  <lowdin_charges> 
28 
1   -0.541882 
2   -0.276388 
3   -0.273051 
4   -0.271191 
5   -0.274601 
6   -0.28025 
7   -0.08234 
8   0.076174 
9   0.148903 
10   -0.0177 
11   -0.204763 
12   -0.211677 
13   -0.354947 
14   0.182157 
15   0.173568 
16   0.174145 
17   0.173064 
18   0.145565 
19   0.13564 
20   0.147851 
21   0.14223 
22   0.143485 
23   0.149074 
24   0.149111 
25   0.166236 
26   0.163739 
27   0.1524 
28   0.365451 
 
$$$$ 
 
