PCCDB-ID:  69209 
public computational chemistry database (PCCDB) project, http://pccdb.org 
 
 26 25  0  0  0  0  0  0  0  0999 V2000 
    1.6121    2.3958    0.6636 C   0  0  0  0  0  0  0  0  0  0  0  0 
    0.9513    0.8220   -1.2339 C   0  0  0  0  0  0  0  0  0  0  0  0 
    8.5846    1.3558    0.0713 C   0  0  0  0  0  0  0  0  0  0  0  0 
    8.4762   -1.1928    0.1453 C   0  0  0  0  0  0  0  0  0  0  0  0 
    1.8681    1.0705   -0.0455 C   0  0  0  0  0  0  0  0  0  0  0  0 
    7.8449    0.0950   -0.3627 C   0  0  0  0  0  0  0  0  0  0  0  0 
    4.2128    0.7225    0.2440 C   0  0  0  0  0  0  0  0  0  0  0  0 
    5.5670    0.7983   -0.4946 C   0  0  0  0  0  0  0  0  0  0  0  0 
    4.0962    0.4028    1.4047 O   0  0  0  0  0  0  0  0  0  0  0  0 
    5.7368    1.4009   -1.5295 O   0  0  0  0  0  0  0  0  0  0  0  0 
    3.2278    1.0719   -0.5872 O   0  0  0  0  0  0  0  0  0  0  0  0 
    6.4903    0.1184    0.1899 O   0  0  0  0  0  0  0  0  0  0  0  0 
    0.5881    2.4193    1.0525 H   0  0  0  0  0  0  0  0  0  0  0  0 
    1.7388    3.2339   -0.0303 H   0  0  0  0  0  0  0  0  0  0  0  0 
    2.2994    2.5231    1.5045 H   0  0  0  0  0  0  0  0  0  0  0  0 
   -0.0906    0.7800   -0.8982 H   0  0  0  0  0  0  0  0  0  0  0  0 
    1.1948   -0.1263   -1.7228 H   0  0  0  0  0  0  0  0  0  0  0  0 
    1.0450    1.6258   -1.9719 H   0  0  0  0  0  0  0  0  0  0  0  0 
    9.6105    1.3370   -0.3130 H   0  0  0  0  0  0  0  0  0  0  0  0 
    8.6256    1.4206    1.1641 H   0  0  0  0  0  0  0  0  0  0  0  0 
    8.0900    2.2490   -0.3200 H   0  0  0  0  0  0  0  0  0  0  0  0 
    9.4902   -1.2940   -0.2564 H   0  0  0  0  0  0  0  0  0  0  0  0 
    7.8919   -2.0633   -0.1683 H   0  0  0  0  0  0  0  0  0  0  0  0 
    8.5353   -1.1917    1.2388 H   0  0  0  0  0  0  0  0  0  0  0  0 
    1.8083    0.2473    0.6726 H   0  0  0  0  0  0  0  0  0  0  0  0 
    7.7494    0.0776   -1.4524 H   0  0  0  0  0  0  0  0  0  0  0  0 
  1 13  1  0  0  0  0 
  1 15  1  0  0  0  0 
  2 16  1  0  0  0  0 
  2  5  1  0  0  0  0 
  3 20  1  0  0  0  0 
  4 24  1  0  0  0  0 
  5  1  1  0  0  0  0 
  5 25  1  0  0  0  0 
  6  3  1  0  0  0  0 
  6  4  1  0  0  0  0 
  6 12  1  0  0  0  0 
  7  9  2  0  0  0  0 
  8 12  1  0  0  0  0 
  8  7  1  0  0  0  0 
 10  8  2  0  0  0  0 
 11  5  1  0  0  0  0 
 11  7  1  0  0  0  0 
 14  1  1  0  0  0  0 
 17  2  1  0  0  0  0 
 18  2  1  0  0  0  0 
 19  3  1  0  0  0  0 
 21  3  1  0  0  0  0 
 22  4  1  0  0  0  0 
 23  4  1  0  0  0  0 
 26  6  1  0  0  0  0 
M  END 
>  <HBA> 
4 
 
>  <HBD> 
0 
 
>  <TPSA> 
52.6 
 
>  <cid> 
69209 
 
>  <dipole> 
0.44 
 
>  <excitation_energy_1> 
4.186 
 
>  <excitation_energy_2> 
5.597 
 
>  <excitation_energy_3> 
6.191 
 
>  <excitation_energy_4> 
6.39 
 
>  <homo_energy> 
-7.094 
 
>  <homo_lumo_gap> 
5.744 
 
>  <logP> 
0.89 
 
>  <lumo_energy> 
-1.35 
 
>  <melting_point> 
-3.01 
 
>  <molecular_refractivity> 
43.14 
 
>  <oscillator_strength_1> 
0.0001 
 
>  <oscillator_strength_2> 
0.0099 
 
>  <oscillator_strength_3> 
0.0 
 
>  <oscillator_strength_4> 
0.1364 
 
>  <open_babel_can_smiles> 
CC(OC(=O)C(=O)OC(C)C)C 
 
>  <mulliken_charges> 
26 
1   -0.459988 
2   -0.452828 
3   -0.460307 
4   -0.452779 
5   0.122577 
6   0.122854 
7   0.572089 
8   0.571831 
9   -0.458988 
10   -0.45882 
11   -0.447858 
12   -0.447701 
13   0.151473 
14   0.159335 
15   0.17418 
16   0.151073 
17   0.161331 
18   0.163192 
19   0.151476 
20   0.159295 
21   0.174323 
22   0.151056 
23   0.161292 
24   0.163097 
25   0.164498 
26   0.1643 
 
>  <lowdin_charges> 
26 
1   -0.45319 
2   -0.446482 
3   -0.451059 
4   -0.444779 
5   0.015383 
6   0.018314 
7   0.162035 
8   0.163429 
9   -0.235806 
10   -0.235975 
11   -0.161337 
12   -0.161311 
13   0.158353 
14   0.158728 
15   0.16697 
16   0.157147 
17   0.160971 
18   0.161 
19   0.15832 
20   0.156185 
21   0.167022 
22   0.157516 
23   0.161518 
24   0.158353 
25   0.155919 
26   0.152778 
 
$$$$ 
 
