PCCDB-ID:  33807 
public computational chemistry database (PCCDB) project, http://pccdb.org 
 
 25 25  0  0  1  0  0  0  0  0999 V2000 
    3.1953   -1.2400    3.0067 C   0  0  0  0  0  0  0  0  0  0  0  0 
    6.9531    5.6632    1.0901 C   0  0  0  0  0  0  0  0  0  0  0  0 
    3.9852   -0.2000    2.2058 C   0  0  0  0  0  0  0  0  0  0  0  0 
    7.2958    4.2703    1.6333 C   0  0  0  0  0  0  0  0  0  0  0  0 
    3.2111    1.1118    2.0137 C   0  0  0  0  0  0  0  0  0  0  0  0 
    3.9522    2.1754    1.1843 C   0  0  0  0  0  0  0  0  0  0  0  0 
    6.3661    3.1999    1.1077 C   0  0  2  0  0  0  0  0  0  0  0  0 
    5.1909    2.7247    1.8556 C   0  0  2  0  0  0  0  0  0  0  0  0 
    6.3921    1.9318    1.7841 O   0  0  0  0  0  0  0  0  0  0  0  0 
    3.7636   -2.1699    3.1231 H   0  0  0  0  0  0  0  0  0  0  0  0 
    2.2474   -1.4885    2.5125 H   0  0  0  0  0  0  0  0  0  0  0  0 
    2.9552   -0.8701    4.0115 H   0  0  0  0  0  0  0  0  0  0  0  0 
    7.6532    6.4153    1.4692 H   0  0  0  0  0  0  0  0  0  0  0  0 
    5.9415    5.9674    1.3836 H   0  0  0  0  0  0  0  0  0  0  0  0 
    7.0024    5.6876   -0.0054 H   0  0  0  0  0  0  0  0  0  0  0  0 
    4.2411   -0.6122    1.2196 H   0  0  0  0  0  0  0  0  0  0  0  0 
    4.9415    0.0041    2.7009 H   0  0  0  0  0  0  0  0  0  0  0  0 
    7.2557    4.2646    2.7294 H   0  0  0  0  0  0  0  0  0  0  0  0 
    8.3261    4.0061    1.3585 H   0  0  0  0  0  0  0  0  0  0  0  0 
    2.9590    1.5346    2.9982 H   0  0  0  0  0  0  0  0  0  0  0  0 
    2.2503    0.8943    1.5259 H   0  0  0  0  0  0  0  0  0  0  0  0 
    3.2727    3.0177    0.9886 H   0  0  0  0  0  0  0  0  0  0  0  0 
    4.2338    1.7603    0.2076 H   0  0  0  0  0  0  0  0  0  0  0  0 
    6.3313    3.1102    0.0177 H   0  0  0  0  0  0  0  0  0  0  0  0 
    5.0236    3.1632    2.8445 H   0  0  0  0  0  0  0  0  0  0  0  0 
  1 10  1  0  0  0  0 
  1 12  1  0  0  0  0 
  2 14  1  0  0  0  0 
  2 13  1  0  0  0  0 
  2  4  1  0  0  0  0 
  3 17  1  0  0  0  0 
  3  1  1  0  0  0  0 
  4 18  1  0  0  0  0 
  5  3  1  0  0  0  0 
  5 20  1  0  0  0  0 
  6  8  1  0  0  0  0 
  6  5  1  0  0  0  0 
  7 24  1  6  0  0  0 
  7  4  1  0  0  0  0 
  7  9  1  0  0  0  0 
  7  8  1  0  0  0  0 
  8 25  1  1  0  0  0 
  9  8  1  0  0  0  0 
 11  1  1  0  0  0  0 
 15  2  1  0  0  0  0 
 16  3  1  0  0  0  0 
 19  4  1  0  0  0  0 
 21  5  1  0  0  0  0 
 22  6  1  0  0  0  0 
 23  6  1  0  0  0  0 
M  END 
>  <HBA> 
1 
 
>  <HBD> 
0 
 
>  <TPSA> 
12.53 
 
>  <cid> 
33807 
 
>  <dipole> 
1.85 
 
>  <excitation_energy_1> 
6.638 
 
>  <excitation_energy_2> 
6.947 
 
>  <excitation_energy_3> 
7.001 
 
>  <excitation_energy_4> 
7.17 
 
>  <homo_energy> 
-6.983 
 
>  <homo_lumo_gap> 
9.437 
 
>  <logP> 
2.354 
 
>  <lumo_energy> 
2.454 
 
>  <melting_point> 
-14.26 
 
>  <molecular_refractivity> 
39.54 
 
>  <oscillator_strength_1> 
0.0061 
 
>  <oscillator_strength_2> 
0.0093 
 
>  <oscillator_strength_3> 
0.002 
 
>  <oscillator_strength_4> 
0.0023 
 
>  <open_babel_can_smiles> 
CCCC[C@H]1O[C@@H]1CC 
 
>  <mulliken_charges> 
25 
1   -0.442745 
2   -0.450175 
3   -0.246861 
4   -0.278833 
5   -0.255898 
6   -0.282384 
7   0.096601 
8   0.090808 
9   -0.466733 
10   0.142797 
11   0.137405 
12   0.138844 
13   0.150564 
14   0.147473 
15   0.146393 
16   0.130517 
17   0.160392 
18   0.14482 
19   0.147686 
20   0.126477 
21   0.128385 
22   0.134995 
23   0.140663 
24   0.130101 
25   0.12871 
 
>  <lowdin_charges> 
25 
1   -0.444116 
2   -0.442789 
3   -0.275017 
4   -0.273601 
5   -0.273877 
6   -0.280893 
7   -0.02276 
8   -0.02827 
9   -0.297038 
10   0.149862 
11   0.143775 
12   0.144161 
13   0.155475 
14   0.148458 
15   0.146759 
16   0.139821 
17   0.153176 
18   0.148898 
19   0.150002 
20   0.136773 
21   0.140099 
22   0.15017 
23   0.149426 
24   0.140213 
25   0.141293 
 
$$$$ 
 
