PCCDB-ID:  20128 
public computational chemistry database (PCCDB) project, http://pccdb.org 
 
 28 29  0  0  1  0  0  0  0  0999 V2000 
    2.5620   -0.0951    0.0393 C   0  0  0  0  0  0  0  0  0  0  0  0 
    1.7802    0.7677   -0.9633 C   0  0  0  0  0  0  0  0  0  0  0  0 
    1.6845   -1.2227    0.6046 C   0  0  0  0  0  0  0  0  0  0  0  0 
    0.4893    1.3210   -0.3398 C   0  0  0  0  0  0  0  0  0  0  0  0 
    0.3884   -0.6727    1.2230 C   0  0  0  0  0  0  0  0  0  0  0  0 
   -3.5883   -0.4810    0.8876 C   0  0  0  0  0  0  0  0  0  0  0  0 
   -2.1495   -0.0708   -1.1991 C   0  0  0  0  0  0  0  0  0  0  0  0 
   -2.7137    0.5008    0.1075 C   0  0  2  0  0  0  0  0  0  0  0  0 
   -0.3881    0.1990    0.2365 C   0  0  0  0  0  0  0  0  0  0  0  0 
   -3.8385   -0.0082    2.1969 O   0  0  0  0  0  0  0  0  0  0  0  0 
   -0.9078   -0.6367   -0.7957 O   0  0  0  0  0  0  0  0  0  0  0  0 
   -1.5358    0.7775    0.8852 O   0  0  0  0  0  0  0  0  0  0  0  0 
    2.9180    0.5390    0.8651 H   0  0  0  0  0  0  0  0  0  0  0  0 
    3.4550   -0.5163   -0.4389 H   0  0  0  0  0  0  0  0  0  0  0  0 
    1.5191    0.1606   -1.8397 H   0  0  0  0  0  0  0  0  0  0  0  0 
    2.4023    1.5964   -1.3234 H   0  0  0  0  0  0  0  0  0  0  0  0 
    2.2368   -1.7975    1.3581 H   0  0  0  0  0  0  0  0  0  0  0  0 
    1.4260   -1.9225   -0.2007 H   0  0  0  0  0  0  0  0  0  0  0  0 
   -0.0906    1.8919   -1.0749 H   0  0  0  0  0  0  0  0  0  0  0  0 
    0.7267    2.0116    0.4797 H   0  0  0  0  0  0  0  0  0  0  0  0 
    0.6214   -0.0546    2.0996 H   0  0  0  0  0  0  0  0  0  0  0  0 
   -0.2675   -1.4844    1.5560 H   0  0  0  0  0  0  0  0  0  0  0  0 
   -3.0953   -1.4680    0.8971 H   0  0  0  0  0  0  0  0  0  0  0  0 
   -4.5613   -0.5938    0.3956 H   0  0  0  0  0  0  0  0  0  0  0  0 
   -2.0096    0.7120   -1.9583 H   0  0  0  0  0  0  0  0  0  0  0  0 
   -2.7604   -0.8715   -1.6272 H   0  0  0  0  0  0  0  0  0  0  0  0 
   -3.2528    1.4441   -0.0371 H   0  0  0  0  0  0  0  0  0  0  0  0 
   -2.9671    0.2497    2.5443 H   0  0  0  0  0  0  0  0  0  0  0  0 
  1  3  1  0  0  0  0 
  1 13  1  0  0  0  0 
  2  4  1  0  0  0  0 
  2  1  1  0  0  0  0 
  3  5  1  0  0  0  0 
  3 17  1  0  0  0  0 
  4  9  1  0  0  0  0 
  4 20  1  0  0  0  0 
  5 22  1  0  0  0  0 
  5 21  1  0  0  0  0 
  6 23  1  0  0  0  0 
  6 10  1  0  0  0  0 
  7 11  1  0  0  0  0 
  7  8  1  0  0  0  0 
  8 27  1  6  0  0  0 
  8 12  1  0  0  0  0 
  8  6  1  0  0  0  0 
  9 12  1  0  0  0  0 
  9  5  1  0  0  0  0 
 10 28  1  0  0  0  0 
 11  9  1  0  0  0  0 
 14  1  1  0  0  0  0 
 15  2  1  0  0  0  0 
 16  2  1  0  0  0  0 
 18  3  1  0  0  0  0 
 19  4  1  0  0  0  0 
 24  6  1  0  0  0  0 
 25  7  1  0  0  0  0 
 26  7  1  0  0  0  0 
M  END 
>  <HBA> 
3 
 
>  <HBD> 
1 
 
>  <TPSA> 
38.69 
 
>  <cid> 
20128 
 
>  <dipole> 
2.1 
 
>  <excitation_energy_1> 
6.335 
 
>  <excitation_energy_2> 
6.521 
 
>  <excitation_energy_3> 
6.549 
 
>  <excitation_energy_4> 
6.724 
 
>  <homo_energy> 
-6.784 
 
>  <homo_lumo_gap> 
8.768 
 
>  <logP> 
1.054 
 
>  <lumo_energy> 
1.984 
 
>  <melting_point> 
28.34 
 
>  <molecular_refractivity> 
44.52 
 
>  <oscillator_strength_1> 
0.005 
 
>  <oscillator_strength_2> 
0.0003 
 
>  <oscillator_strength_3> 
0.0023 
 
>  <oscillator_strength_4> 
0.0085 
 
>  <open_babel_can_smiles> 
OC[C@@H]1COC2(O1)CCCCC2 
 
>  <mulliken_charges> 
28 
1   -0.262125 
2   -0.264457 
3   -0.268758 
4   -0.275236 
5   -0.283059 
6   -0.029814 
7   -0.073541 
8   0.105302 
9   0.54232 
10   -0.623431 
11   -0.503807 
12   -0.555492 
13   0.128536 
14   0.134162 
15   0.145751 
16   0.132867 
17   0.134229 
18   0.151015 
19   0.132368 
20   0.141792 
21   0.140524 
22   0.143243 
23   0.127574 
24   0.137766 
25   0.140281 
26   0.15759 
27   0.143947 
28   0.400451 
 
>  <lowdin_charges> 
28 
1   -0.279697 
2   -0.281653 
3   -0.281046 
4   -0.297471 
5   -0.289367 
6   -0.148421 
7   -0.146626 
8   -0.028874 
9   0.21146 
10   -0.465206 
11   -0.262675 
12   -0.277984 
13   0.138312 
14   0.14666 
15   0.147488 
16   0.146819 
17   0.147759 
18   0.150054 
19   0.149533 
20   0.151589 
21   0.150913 
22   0.15431 
23   0.129419 
24   0.145981 
25   0.138576 
26   0.15869 
27   0.148237 
28   0.343218 
 
$$$$ 
 
