PCCDB-ID:  8139 
public computational chemistry database (PCCDB) project, http://pccdb.org 
 
 41 40  0  0  0  0  0  0  0  0999 V2000 
    4.9357    3.1315   -2.9735 C   0  0  0  0  0  0  0  0  0  0  0  0 
   15.7611   -7.1698   -3.7748 C   0  0  0  0  0  0  0  0  0  0  0  0 
    4.5865    1.7916   -2.3175 C   0  0  0  0  0  0  0  0  0  0  0  0 
    5.3795    0.6102   -2.8919 C   0  0  0  0  0  0  0  0  0  0  0  0 
    5.0209   -0.7335   -2.2415 C   0  0  0  0  0  0  0  0  0  0  0  0 
    5.7486   -1.9530   -2.8324 C   0  0  0  0  0  0  0  0  0  0  0  0 
    7.2637   -1.9810   -2.5848 C   0  0  0  0  0  0  0  0  0  0  0  0 
    7.9408   -3.2499   -3.1196 C   0  0  0  0  0  0  0  0  0  0  0  0 
    9.4554   -3.2845   -2.8789 C   0  0  0  0  0  0  0  0  0  0  0  0 
   10.1317   -4.5540   -3.4125 C   0  0  0  0  0  0  0  0  0  0  0  0 
   11.6446   -4.5829   -3.1636 C   0  0  0  0  0  0  0  0  0  0  0  0 
   12.3087   -5.8509   -3.7040 C   0  0  0  0  0  0  0  0  0  0  0  0 
   13.7983   -5.9091   -3.4267 C   0  0  0  0  0  0  0  0  0  0  0  0 
   14.4350   -5.0961   -2.7923 O   0  0  0  0  0  0  0  0  0  0  0  0 
   14.3491   -7.0130   -3.9858 O   0  0  0  0  0  0  0  0  0  0  0  0 
    4.3557    3.9539   -2.5392 H   0  0  0  0  0  0  0  0  0  0  0  0 
    4.7294    3.1109   -4.0508 H   0  0  0  0  0  0  0  0  0  0  0  0 
    5.9989    3.3700   -2.8461 H   0  0  0  0  0  0  0  0  0  0  0  0 
   16.3102   -6.3218   -4.1932 H   0  0  0  0  0  0  0  0  0  0  0  0 
   16.0336   -8.0929   -4.2876 H   0  0  0  0  0  0  0  0  0  0  0  0 
   15.9861   -7.2432   -2.7072 H   0  0  0  0  0  0  0  0  0  0  0  0 
    3.5108    1.5960   -2.4335 H   0  0  0  0  0  0  0  0  0  0  0  0 
    4.7675    1.8561   -1.2350 H   0  0  0  0  0  0  0  0  0  0  0  0 
    6.4532    0.8117   -2.7742 H   0  0  0  0  0  0  0  0  0  0  0  0 
    5.1996    0.5463   -3.9760 H   0  0  0  0  0  0  0  0  0  0  0  0 
    3.9370   -0.8907   -2.3368 H   0  0  0  0  0  0  0  0  0  0  0  0 
    5.2251   -0.6795   -1.1615 H   0  0  0  0  0  0  0  0  0  0  0  0 
    5.5567   -1.9996   -3.9148 H   0  0  0  0  0  0  0  0  0  0  0  0 
    5.3068   -2.8656   -2.4072 H   0  0  0  0  0  0  0  0  0  0  0  0 
    7.4539   -1.8964   -1.5042 H   0  0  0  0  0  0  0  0  0  0  0  0 
    7.7365   -1.1028   -3.0456 H   0  0  0  0  0  0  0  0  0  0  0  0 
    7.7416   -3.3407   -4.1979 H   0  0  0  0  0  0  0  0  0  0  0  0 
    7.4786   -4.1320   -2.6516 H   0  0  0  0  0  0  0  0  0  0  0  0 
    9.6545   -3.1949   -1.8008 H   0  0  0  0  0  0  0  0  0  0  0  0 
    9.9189   -2.4031   -3.3461 H   0  0  0  0  0  0  0  0  0  0  0  0 
    9.9351   -4.6439   -4.4915 H   0  0  0  0  0  0  0  0  0  0  0  0 
    9.6668   -5.4355   -2.9460 H   0  0  0  0  0  0  0  0  0  0  0  0 
   11.8500   -4.5000   -2.0893 H   0  0  0  0  0  0  0  0  0  0  0  0 
   12.1153   -3.7056   -3.6254 H   0  0  0  0  0  0  0  0  0  0  0  0 
   12.1625   -5.9468   -4.7881 H   0  0  0  0  0  0  0  0  0  0  0  0 
   11.8531   -6.7512   -3.2687 H   0  0  0  0  0  0  0  0  0  0  0  0 
  1 18  1  0  0  0  0 
  1 16  1  0  0  0  0 
  1  3  1  0  0  0  0 
  2 21  1  0  0  0  0 
  3 23  1  0  0  0  0 
  4 24  1  0  0  0  0 
  4  3  1  0  0  0  0 
  4  5  1  0  0  0  0 
  5 27  1  0  0  0  0 
  6  7  1  0  0  0  0 
  6 29  1  0  0  0  0 
  6  5  1  0  0  0  0 
  7 30  1  0  0  0  0 
  8  9  1  0  0  0  0 
  8 33  1  0  0  0  0 
  8  7  1  0  0  0  0 
  9 34  1  0  0  0  0 
 10 11  1  0  0  0  0 
 10 37  1  0  0  0  0 
 10  9  1  0  0  0  0 
 11 38  1  0  0  0  0 
 12 13  1  0  0  0  0 
 12 41  1  0  0  0  0 
 12 11  1  0  0  0  0 
 13 14  2  0  0  0  0 
 15  2  1  0  0  0  0 
 15 13  1  0  0  0  0 
 17  1  1  0  0  0  0 
 19  2  1  0  0  0  0 
 20  2  1  0  0  0  0 
 22  3  1  0  0  0  0 
 25  4  1  0  0  0  0 
 26  5  1  0  0  0  0 
 28  6  1  0  0  0  0 
 31  7  1  0  0  0  0 
 32  8  1  0  0  0  0 
 35  9  1  0  0  0  0 
 36 10  1  0  0  0  0 
 39 11  1  0  0  0  0 
 40 12  1  0  0  0  0 
M  END 
>  <HBA> 
2 
 
>  <HBD> 
0 
 
>  <TPSA> 
26.3 
 
>  <cid> 
8139 
 
>  <dipole> 
1.55 
 
>  <excitation_energy_1> 
5.849 
 
>  <excitation_energy_2> 
6.997 
 
>  <excitation_energy_3> 
7.49 
 
>  <excitation_energy_4> 
7.657 
 
>  <homo_energy> 
-7.29 
 
>  <homo_lumo_gap> 
7.75 
 
>  <logP> 
4.08 
 
>  <lumo_energy> 
0.46 
 
>  <melting_point> 
-18.77 
 
>  <molecular_refractivity> 
65.89 
 
>  <oscillator_strength_1> 
0.0006 
 
>  <oscillator_strength_2> 
0.0191 
 
>  <oscillator_strength_3> 
0.0059 
 
>  <oscillator_strength_4> 
0.0035 
 
>  <open_babel_can_smiles> 
CCCCCCCCCCCC(=O)OC 
 
>  <mulliken_charges> 
41 
1   -0.441631 
2   -0.216935 
3   -0.246385 
4   -0.247214 
5   -0.254189 
6   -0.254636 
7   -0.254005 
8   -0.252844 
9   -0.25384 
10   -0.257053 
11   -0.248645 
12   -0.362479 
13   0.620633 
14   -0.478485 
15   -0.454797 
16   0.141066 
17   0.140693 
18   0.140979 
19   0.168956 
20   0.16269 
21   0.168511 
22   0.129253 
23   0.129986 
24   0.131955 
25   0.1247 
26   0.126096 
27   0.125783 
28   0.125584 
29   0.126036 
30   0.126291 
31   0.132795 
32   0.126582 
33   0.126237 
34   0.129902 
35   0.129455 
36   0.126775 
37   0.126874 
38   0.150126 
39   0.146174 
40   0.16904 
41   0.169969 
 
>  <lowdin_charges> 
41 
1   -0.442273 
2   -0.277308 
3   -0.267981 
4   -0.27327 
5   -0.271289 
6   -0.273569 
7   -0.275405 
8   -0.272621 
9   -0.272616 
10   -0.273449 
11   -0.269512 
12   -0.299915 
13   0.197351 
14   -0.264995 
15   -0.199619 
16   0.149763 
17   0.144105 
18   0.144518 
19   0.159423 
20   0.159715 
21   0.156574 
22   0.136263 
23   0.136676 
24   0.136875 
25   0.134297 
26   0.137783 
27   0.135171 
28   0.135089 
29   0.140027 
30   0.13533 
31   0.139861 
32   0.135471 
33   0.137519 
34   0.137366 
35   0.139498 
36   0.135363 
37   0.137851 
38   0.149406 
39   0.149809 
40   0.16489 
41   0.167829 
 
$$$$ 
 
