PCCDB-ID:  9033 
public computational chemistry database (PCCDB) project, http://pccdb.org 
 
  8  8  0  0  0  0  0  0  0  0999 V2000 
    0.0090    0.8837   -0.0825 C   0  0  0  0  0  0  0  0  0  0  0  0 
    0.7794   -0.3790    0.0512 C   0  0  0  0  0  0  0  0  0  0  0  0 
   -0.6929   -0.4043    0.0480 N   0  0  0  0  0  0  0  0  0  0  0  0 
    0.0163    1.3878   -1.0480 H   0  0  0  0  0  0  0  0  0  0  0  0 
   -0.0982    1.5498    0.7705 H   0  0  0  0  0  0  0  0  0  0  0  0 
    1.2377   -0.6398    1.0025 H   0  0  0  0  0  0  0  0  0  0  0  0 
    1.3176   -0.7451   -0.8221 H   0  0  0  0  0  0  0  0  0  0  0  0 
   -1.0328   -0.7084   -0.8643 H   0  0  0  0  0  0  0  0  0  0  0  0 
  1  3  1  0  0  0  0 
  1  2  1  0  0  0  0 
  1  5  1  0  0  0  0 
  2  6  1  0  0  0  0 
  3  2  1  0  0  0  0 
  4  1  1  0  0  0  0 
  7  2  1  0  0  0  0 
  8  3  1  0  0  0  0 
M  END 
>  <HBA> 
1 
 
>  <HBD> 
1 
 
>  <TPSA> 
21.94 
 
>  <cid> 
9033 
 
>  <dipole> 
1.78 
 
>  <excitation_energy_1> 
6.08 
 
>  <excitation_energy_2> 
6.666 
 
>  <excitation_energy_3> 
6.813 
 
>  <excitation_energy_4> 
7.052 
 
>  <homo_energy> 
-6.634 
 
>  <homo_lumo_gap> 
8.819 
 
>  <logP> 
-0.082 
 
>  <lumo_energy> 
2.185 
 
>  <melting_point> 
30.83 
 
>  <molecular_refractivity> 
16.33 
 
>  <oscillator_strength_1> 
0.0015 
 
>  <oscillator_strength_2> 
0.0439 
 
>  <oscillator_strength_3> 
0.0074 
 
>  <oscillator_strength_4> 
0.052 
 
>  <open_babel_can_smiles> 
N1CC1 
 
>  <mulliken_charges> 
8 
1   -0.201611 
2   -0.2019 
3   -0.516593 
4   0.146454 
5   0.16105 
6   0.161094 
7   0.14648 
8   0.305027 
 
>  <lowdin_charges> 
8 
1   -0.247804 
2   -0.246977 
3   -0.375862 
4   0.148174 
5   0.158924 
6   0.158393 
7   0.149106 
8   0.256045 
 
$$$$ 
 
