PCCDB-ID:  66329 
public computational chemistry database (PCCDB) project, http://pccdb.org 
 
 16 15  0  0  1  0  0  0  0  0999 V2000 
    0.9005   -0.0375    0.1006 C   0  0  0  0  0  0  0  0  0  0  0  0 
    3.0337    0.7943    1.0873 C   0  0  0  0  0  0  0  0  0  0  0  0 
    3.4303    0.6621   -2.1545 C   0  0  0  0  0  0  0  0  0  0  0  0 
    2.2262    0.1027    0.0170 C   0  0  0  0  0  0  0  0  0  0  0  0 
    2.9921   -0.4416   -1.1828 C   0  0  2  0  0  0  0  0  0  0  0  0 
    4.1119   -1.2417   -0.7835 O   0  0  0  0  0  0  0  0  0  0  0  0 
    0.3311    0.3662    0.9345 H   0  0  0  0  0  0  0  0  0  0  0  0 
    0.3320   -0.5623   -0.6640 H   0  0  0  0  0  0  0  0  0  0  0  0 
    2.3929    1.1696    1.8903 H   0  0  0  0  0  0  0  0  0  0  0  0 
    3.6030    1.6454    0.6884 H   0  0  0  0  0  0  0  0  0  0  0  0 
    3.7592    0.1006    1.5309 H   0  0  0  0  0  0  0  0  0  0  0  0 
    2.5668    1.2206   -2.5307 H   0  0  0  0  0  0  0  0  0  0  0  0 
    3.9628    0.2202   -3.0034 H   0  0  0  0  0  0  0  0  0  0  0  0 
    4.1034    1.3791   -1.6659 H   0  0  0  0  0  0  0  0  0  0  0  0 
    2.3385   -1.1369   -1.7202 H   0  0  0  0  0  0  0  0  0  0  0  0 
    4.8192   -0.6375   -0.5074 H   0  0  0  0  0  0  0  0  0  0  0  0 
  1  7  1  0  0  0  0 
  2 11  1  0  0  0  0 
  2  9  1  0  0  0  0 
  3 14  1  0  0  0  0 
  3  5  1  0  0  0  0 
  4  1  2  0  0  0  0 
  4  2  1  0  0  0  0 
  5 15  1  6  0  0  0 
  5  6  1  0  0  0  0 
  5  4  1  0  0  0  0 
  6 16  1  0  0  0  0 
  8  1  1  0  0  0  0 
 10  2  1  0  0  0  0 
 12  3  1  0  0  0  0 
 13  3  1  0  0  0  0 
M  END 
>  <HBA> 
1 
 
>  <HBD> 
1 
 
>  <TPSA> 
20.23 
 
>  <cid> 
66329 
 
>  <dipole> 
1.75 
 
>  <excitation_energy_1> 
6.183 
 
>  <excitation_energy_2> 
6.496 
 
>  <excitation_energy_3> 
6.641 
 
>  <excitation_energy_4> 
6.678 
 
>  <homo_energy> 
-6.705 
 
>  <homo_lumo_gap> 
7.314 
 
>  <logP> 
0.943 
 
>  <lumo_energy> 
0.61 
 
>  <melting_point> 
-24.46 
 
>  <molecular_refractivity> 
26.84 
 
>  <oscillator_strength_1> 
0.0099 
 
>  <oscillator_strength_2> 
0.0068 
 
>  <oscillator_strength_3> 
0.068 
 
>  <oscillator_strength_4> 
0.0175 
 
>  <open_babel_can_smiles> 
CC(=C)[C@H](O)C 
 
>  <mulliken_charges> 
16 
1   -0.4042 
2   -0.539021 
3   -0.466421 
4   0.250823 
5   0.059988 
6   -0.619353 
7   0.133475 
8   0.134198 
9   0.159167 
10   0.149772 
11   0.162974 
12   0.155339 
13   0.159784 
14   0.134674 
15   0.142221 
16   0.38658 
 
>  <lowdin_charges> 
16 
1   -0.360304 
2   -0.451261 
3   -0.463428 
4   -0.004687 
5   -0.00015 
6   -0.462793 
7   0.155855 
8   0.155707 
9   0.162158 
10   0.152483 
11   0.160847 
12   0.160418 
13   0.15919 
14   0.145169 
15   0.15112 
16   0.339675 
 
$$$$ 
 
