PCCDB-ID:  59236 
public computational chemistry database (PCCDB) project, http://pccdb.org 
 
 36 37  0  0  0  0  0  0  0  0999 V2000 
    2.4834    0.5678    0.1497 C   0  0  0  0  0  0  0  0  0  0  0  0 
    3.7010    0.5741   -0.7798 C   0  0  0  0  0  0  0  0  0  0  0  0 
    5.0347    0.5936   -0.0242 C   0  0  0  0  0  0  0  0  0  0  0  0 
    9.7051   -1.0454   -4.8447 C   0  0  0  0  0  0  0  0  0  0  0  0 
    9.5255   -1.4468   -3.5219 C   0  0  0  0  0  0  0  0  0  0  0  0 
    7.7343    3.4020   -4.3789 C   0  0  0  0  0  0  0  0  0  0  0  0 
    9.5578    0.2999   -5.1890 C   0  0  0  0  0  0  0  0  0  0  0  0 
    9.1045    2.7291   -4.6224 C   0  0  0  0  0  0  0  0  0  0  0  0 
    9.1925   -0.4992   -2.5522 C   0  0  0  0  0  0  0  0  0  0  0  0 
    7.3785    3.6694   -2.8992 C   0  0  0  0  0  0  0  0  0  0  0  0 
    6.2643    0.6426   -0.9403 C   0  0  0  0  0  0  0  0  0  0  0  0 
    9.2212    1.2645   -4.2323 C   0  0  0  0  0  0  0  0  0  0  0  0 
    9.0336    0.8420   -2.9001 C   0  0  0  0  0  0  0  0  0  0  0  0 
    7.3772    2.3951   -2.0878 C   0  0  0  0  0  0  0  0  0  0  0  0 
    6.2790    1.8812   -1.7073 N   0  0  0  0  0  0  0  0  0  0  0  0 
    8.6767    1.8038   -1.8739 N   0  0  0  0  0  0  0  0  0  0  0  0 
    1.5456    0.5534   -0.4179 H   0  0  0  0  0  0  0  0  0  0  0  0 
    2.4699    1.4585    0.7903 H   0  0  0  0  0  0  0  0  0  0  0  0 
    2.4869   -0.3104    0.8080 H   0  0  0  0  0  0  0  0  0  0  0  0 
    3.6627    1.4453   -1.4439 H   0  0  0  0  0  0  0  0  0  0  0  0 
    3.6698   -0.3120   -1.4309 H   0  0  0  0  0  0  0  0  0  0  0  0 
    5.1126   -0.2987    0.6141 H   0  0  0  0  0  0  0  0  0  0  0  0 
    5.0626    1.4616    0.6495 H   0  0  0  0  0  0  0  0  0  0  0  0 
    9.9626   -1.7740   -5.6086 H   0  0  0  0  0  0  0  0  0  0  0  0 
    9.6453   -2.4900   -3.2426 H   0  0  0  0  0  0  0  0  0  0  0  0 
    6.9454    2.7865   -4.8284 H   0  0  0  0  0  0  0  0  0  0  0  0 
    7.7281    4.3630   -4.9093 H   0  0  0  0  0  0  0  0  0  0  0  0 
    9.7087    0.6096   -6.2209 H   0  0  0  0  0  0  0  0  0  0  0  0 
    9.8792    3.3130   -4.0986 H   0  0  0  0  0  0  0  0  0  0  0  0 
    9.3434    2.8142   -5.6887 H   0  0  0  0  0  0  0  0  0  0  0  0 
    9.0563   -0.7844   -1.5138 H   0  0  0  0  0  0  0  0  0  0  0  0 
    6.3906    4.1333   -2.8318 H   0  0  0  0  0  0  0  0  0  0  0  0 
    8.1097    4.3766   -2.4765 H   0  0  0  0  0  0  0  0  0  0  0  0 
    6.2253   -0.2039   -1.6428 H   0  0  0  0  0  0  0  0  0  0  0  0 
    7.1884    0.5226   -0.3559 H   0  0  0  0  0  0  0  0  0  0  0  0 
    9.3767    2.5453   -1.8651 H   0  0  0  0  0  0  0  0  0  0  0  0 
  1 18  1  0  0  0  0 
  1 19  1  0  0  0  0 
  2  3  1  0  0  0  0 
  2  1  1  0  0  0  0 
  3 22  1  0  0  0  0 
  3 23  1  0  0  0  0 
  4  5  1  0  0  0  0 
  5 25  1  0  0  0  0 
  5  9  2  0  0  0  0 
  6 10  1  0  0  0  0 
  7  4  2  0  0  0  0 
  7 12  1  0  0  0  0 
  8  6  1  0  0  0  0 
  8 12  1  0  0  0  0 
  8 29  1  0  0  0  0 
  9 31  1  0  0  0  0 
 10 32  1  0  0  0  0 
 10 33  1  0  0  0  0 
 10 14  1  0  0  0  0 
 11 35  1  0  0  0  0 
 11  3  1  0  0  0  0 
 12 13  2  0  0  0  0 
 13  9  1  0  0  0  0 
 13 16  1  0  0  0  0 
 14 16  1  0  0  0  0 
 14 15  2  0  0  0  0 
 15 11  1  0  0  0  0 
 16 36  1  0  0  0  0 
 17  1  1  0  0  0  0 
 20  2  1  0  0  0  0 
 21  2  1  0  0  0  0 
 24  4  1  0  0  0  0 
 26  6  1  0  0  0  0 
 27  6  1  0  0  0  0 
 28  7  1  0  0  0  0 
 30  8  1  0  0  0  0 
 34 11  1  0  0  0  0 
M  END 
>  <HBA> 
2 
 
>  <HBD> 
1 
 
>  <TPSA> 
24.39 
 
>  <cid> 
59236 
 
>  <dipole> 
2.55 
 
>  <excitation_energy_1> 
4.99 
 
>  <excitation_energy_2> 
5.132 
 
>  <excitation_energy_3> 
5.281 
 
>  <excitation_energy_4> 
5.432 
 
>  <homo_energy> 
-6.207 
 
>  <homo_lumo_gap> 
6.022 
 
>  <logP> 
3.269 
 
>  <lumo_energy> 
-0.185 
 
>  <melting_point> 
79.17 
 
>  <molecular_refractivity> 
73.47 
 
>  <oscillator_strength_1> 
0.0042 
 
>  <oscillator_strength_2> 
0.0035 
 
>  <oscillator_strength_3> 
0.0053 
 
>  <oscillator_strength_4> 
0.0384 
 
>  <open_babel_can_smiles> 
CCCC/N=C\1/CCCc2c(N1)cccc2 
 
>  <mulliken_charges> 
36 
1   -0.441407 
2   -0.244786 
3   -0.245956 
4   -0.115615 
5   -0.146887 
6   -0.254348 
7   -0.211014 
8   -0.36745 
9   -0.135457 
10   -0.315909 
11   -0.156525 
12   0.196163 
13   0.145193 
14   0.409701 
15   -0.407809 
16   -0.648756 
17   0.137786 
18   0.139331 
19   0.135414 
20   0.155109 
21   0.120706 
22   0.119106 
23   0.130665 
24   0.129935 
25   0.132065 
26   0.156738 
27   0.140714 
28   0.125478 
29   0.139294 
30   0.148283 
31   0.140083 
32   0.163651 
33   0.130042 
34   0.142337 
35   0.144328 
36   0.309798 
 
>  <lowdin_charges> 
36 
1   -0.445039 
2   -0.275761 
3   -0.278648 
4   -0.157711 
5   -0.15661 
6   -0.270976 
7   -0.164173 
8   -0.278185 
9   -0.157172 
10   -0.289053 
11   -0.210837 
12   -0.019575 
13   0.030512 
14   0.086389 
15   -0.185372 
16   -0.327761 
17   0.146908 
18   0.145304 
19   0.143024 
20   0.15164 
21   0.134971 
22   0.137176 
23   0.141106 
24   0.159799 
25   0.157973 
26   0.15402 
27   0.148536 
28   0.15411 
29   0.146234 
30   0.153224 
31   0.164981 
32   0.164486 
33   0.143337 
34   0.146353 
35   0.14073 
36   0.26606 
 
$$$$ 
 
