PCCDB-ID:  19218 
public computational chemistry database (PCCDB) project, http://pccdb.org 
 
 32 31  0  0  0  0  0  0  0  0999 V2000 
    5.4719   -1.9251    3.7078 C   0  0  0  0  0  0  0  0  0  0  0  0 
   12.4441   -6.8759   -4.7811 C   0  0  0  0  0  0  0  0  0  0  0  0 
   10.6134   -5.8162   -3.7529 C   0  0  0  0  0  0  0  0  0  0  0  0 
   10.2593   -4.5625   -2.9665 C   0  0  0  0  0  0  0  0  0  0  0  0 
    8.4161   -3.5001   -1.9403 C   0  0  0  0  0  0  0  0  0  0  0  0 
    6.9291   -3.6999   -1.6864 C   0  0  0  0  0  0  0  0  0  0  0  0 
    5.0846   -2.6359   -0.6689 C   0  0  0  0  0  0  0  0  0  0  0  0 
    4.6946   -1.4034    0.1260 C   0  0  0  0  0  0  0  0  0  0  0  0 
    4.7058   -2.0548    2.4125 C   0  0  0  0  0  0  0  0  0  0  0  0 
    3.6790   -2.6814    2.2617 O   0  0  0  0  0  0  0  0  0  0  0  0 
   11.9938   -5.7572   -4.0485 O   0  0  0  0  0  0  0  0  0  0  0  0 
    8.8774   -4.6208   -2.6687 O   0  0  0  0  0  0  0  0  0  0  0  0 
    6.4637   -2.5711   -0.9720 O   0  0  0  0  0  0  0  0  0  0  0  0 
    5.3234   -1.3661    1.4227 O   0  0  0  0  0  0  0  0  0  0  0  0 
    4.9571   -2.4809    4.4921 H   0  0  0  0  0  0  0  0  0  0  0  0 
    5.5579   -0.8710    3.9911 H   0  0  0  0  0  0  0  0  0  0  0  0 
    6.4884   -2.3118    3.5813 H   0  0  0  0  0  0  0  0  0  0  0  0 
   13.5156   -6.7411   -4.9504 H   0  0  0  0  0  0  0  0  0  0  0  0 
   11.9350   -6.9577   -5.7552 H   0  0  0  0  0  0  0  0  0  0  0  0 
   12.2842   -7.8163   -4.2290 H   0  0  0  0  0  0  0  0  0  0  0  0 
   10.0096   -5.8599   -4.6743 H   0  0  0  0  0  0  0  0  0  0  0  0 
   10.3717   -6.7105   -3.1551 H   0  0  0  0  0  0  0  0  0  0  0  0 
   10.4987   -3.6684   -3.5641 H   0  0  0  0  0  0  0  0  0  0  0  0 
   10.8618   -4.5187   -2.0452 H   0  0  0  0  0  0  0  0  0  0  0  0 
    8.9482   -3.4039   -0.9803 H   0  0  0  0  0  0  0  0  0  0  0  0 
    8.5752   -2.5668   -2.5040 H   0  0  0  0  0  0  0  0  0  0  0  0 
    6.7696   -4.6266   -1.1122 H   0  0  0  0  0  0  0  0  0  0  0  0 
    6.4000   -3.8088   -2.6472 H   0  0  0  0  0  0  0  0  0  0  0  0 
    4.4812   -2.6600   -1.5936 H   0  0  0  0  0  0  0  0  0  0  0  0 
    4.8469   -3.5442   -0.0952 H   0  0  0  0  0  0  0  0  0  0  0  0 
    3.6087   -1.3704    0.2465 H   0  0  0  0  0  0  0  0  0  0  0  0 
    5.0457   -0.5025   -0.3818 H   0  0  0  0  0  0  0  0  0  0  0  0 
  1 16  1  0  0  0  0 
  1 15  1  0  0  0  0 
  2 20  1  0  0  0  0 
  2 11  1  0  0  0  0 
  3 22  1  0  0  0  0 
  3  4  1  0  0  0  0 
  4 12  1  0  0  0  0 
  4 24  1  0  0  0  0 
  5  6  1  0  0  0  0 
  5 25  1  0  0  0  0 
  6 27  1  0  0  0  0 
  6 13  1  0  0  0  0 
  7 30  1  0  0  0  0 
  7  8  1  0  0  0  0 
  8 31  1  0  0  0  0 
  8 14  1  0  0  0  0 
  9  1  1  0  0  0  0 
 10  9  2  0  0  0  0 
 11  3  1  0  0  0  0 
 12  5  1  0  0  0  0 
 13  7  1  0  0  0  0 
 14  9  1  0  0  0  0 
 17  1  1  0  0  0  0 
 18  2  1  0  0  0  0 
 19  2  1  0  0  0  0 
 21  3  1  0  0  0  0 
 23  4  1  0  0  0  0 
 26  5  1  0  0  0  0 
 28  6  1  0  0  0  0 
 29  7  1  0  0  0  0 
 32  8  1  0  0  0  0 
M  END 
>  <HBA> 
5 
 
>  <HBD> 
0 
 
>  <TPSA> 
53.99 
 
>  <cid> 
19218 
 
>  <dipole> 
1.14 
 
>  <excitation_energy_1> 
5.807 
 
>  <excitation_energy_2> 
6.532 
 
>  <excitation_energy_3> 
6.631 
 
>  <excitation_energy_4> 
6.697 
 
>  <homo_energy> 
-6.898 
 
>  <homo_lumo_gap> 
7.255 
 
>  <logP> 
0.229 
 
>  <lumo_energy> 
0.356 
 
>  <melting_point> 
-42.96 
 
>  <molecular_refractivity> 
49.92 
 
>  <oscillator_strength_1> 
0.0013 
 
>  <oscillator_strength_2> 
0.0085 
 
>  <oscillator_strength_3> 
0.0287 
 
>  <oscillator_strength_4> 
0.0079 
 
>  <open_babel_can_smiles> 
COCCOCCOCCOC(=O)C 
 
>  <mulliken_charges> 
32 
1   -0.522435 
2   -0.189758 
3   -0.025184 
4   -0.020056 
5   -0.020225 
6   -0.02364 
7   -0.02646 
8   -0.061638 
9   0.600135 
10   -0.471975 
11   -0.466822 
12   -0.492038 
13   -0.480203 
14   -0.441978 
15   0.181628 
16   0.182342 
17   0.184655 
18   0.159054 
19   0.131379 
20   0.13137 
21   0.130015 
22   0.130313 
23   0.133636 
24   0.133785 
25   0.134196 
26   0.133246 
27   0.134369 
28   0.131733 
29   0.125413 
30   0.151655 
31   0.168776 
32   0.164713 
 
>  <lowdin_charges> 
32 
1   -0.462867 
2   -0.27557 
3   -0.134132 
4   -0.131552 
5   -0.1316 
6   -0.1332 
7   -0.138971 
8   -0.135576 
9   0.199119 
10   -0.269524 
11   -0.271434 
12   -0.27369 
13   -0.271649 
14   -0.191418 
15   0.176354 
16   0.177008 
17   0.178669 
18   0.153683 
19   0.13178 
20   0.132343 
21   0.132249 
22   0.13242 
23   0.134664 
24   0.134675 
25   0.134164 
26   0.134006 
27   0.134573 
28   0.132516 
29   0.135116 
30   0.144829 
31   0.160503 
32   0.162515 
 
$$$$ 
 
