PCCDB-ID:  6581 
public computational chemistry database (PCCDB) project, http://pccdb.org 
 
  9  8  0  0  0  0  0  0  0  0999 V2000 
    0.9641   -0.2451    0.0183 C   0  0  0  0  0  0  0  0  0  0  0  0 
    2.2832   -0.0459   -0.0511 C   0  0  0  0  0  0  0  0  0  0  0  0 
    2.9474    1.2631   -0.3285 C   0  0  0  0  0  0  0  0  0  0  0  0 
    4.0552    1.3356   -0.8034 O   0  0  0  0  0  0  0  0  0  0  0  0 
    2.2457    2.3934   -0.0412 O   0  0  0  0  0  0  0  0  0  0  0  0 
    0.5495   -1.2370    0.1716 H   0  0  0  0  0  0  0  0  0  0  0  0 
    0.2379    0.5560   -0.1081 H   0  0  0  0  0  0  0  0  0  0  0  0 
    2.9785   -0.8774    0.0185 H   0  0  0  0  0  0  0  0  0  0  0  0 
    1.4488    2.1679    0.4657 H   0  0  0  0  0  0  0  0  0  0  0  0 
  1  6  1  0  0  0  0 
  2  1  2  0  0  0  0 
  2  8  1  0  0  0  0 
  3  2  1  0  0  0  0 
  3  5  1  0  0  0  0 
  4  3  2  0  0  0  0 
  5  9  1  0  0  0  0 
  7  1  1  0  0  0  0 
M  END 
>  <HBA> 
2 
 
>  <HBD> 
1 
 
>  <TPSA> 
37.3 
 
>  <cid> 
6581 
 
>  <dipole> 
4.52 
 
>  <excitation_energy_1> 
4.552 
 
>  <excitation_energy_2> 
6.355 
 
>  <excitation_energy_3> 
6.566 
 
>  <excitation_energy_4> 
6.901 
 
>  <homo_energy> 
-7.494 
 
>  <homo_lumo_gap> 
5.968 
 
>  <logP> 
0.257 
 
>  <lumo_energy> 
-1.527 
 
>  <melting_point> 
31.99 
 
>  <molecular_refractivity> 
17.83 
 
>  <oscillator_strength_1> 
0.0029 
 
>  <oscillator_strength_2> 
0.1912 
 
>  <oscillator_strength_3> 
0.0664 
 
>  <oscillator_strength_4> 
0.1119 
 
>  <open_babel_can_smiles> 
OC(=O)C=C 
 
>  <mulliken_charges> 
9 
1   -0.341103 
2   -0.12966 
3   0.569087 
4   -0.437941 
5   -0.568299 
6   0.173832 
7   0.153203 
8   0.173312 
9   0.407568 
 
>  <lowdin_charges> 
9 
1   -0.301434 
2   -0.180668 
3   0.186675 
4   -0.228828 
5   -0.355758 
6   0.176726 
7   0.161361 
8   0.183002 
9   0.358924 
 
$$$$ 
 
