PCCDB-ID:  21536 
public computational chemistry database (PCCDB) project, http://pccdb.org 
 
 23 24  0  0  1  0  0  0  0  0999 V2000 
   -1.2974    1.9137   -0.1797 C   0  0  0  0  0  0  0  0  0  0  0  0 
   -1.0524    0.5380   -0.2240 C   0  0  0  0  0  0  0  0  0  0  0  0 
   -0.2317    2.8168   -0.1785 C   0  0  0  0  0  0  0  0  0  0  0  0 
    0.2539    0.0616   -0.2736 C   0  0  0  0  0  0  0  0  0  0  0  0 
    1.0790    2.3479   -0.2263 C   0  0  0  0  0  0  0  0  0  0  0  0 
    1.3270    0.9670   -0.2804 C   0  0  0  0  0  0  0  0  0  0  0  0 
    2.6922    0.4443   -0.3511 C   0  0  2  0  0  0  0  0  0  0  0  0 
    4.8945   -3.0573    0.1115 C   0  0  0  0  0  0  0  0  0  0  0  0 
    4.4199   -0.8335   -0.3502 C   0  0  0  0  0  0  0  0  0  0  0  0 
    5.3840   -3.7678    1.0496 N   0  0  0  0  0  0  0  0  0  0  0  0 
    3.0526   -0.7809   -0.1140 N   0  0  0  0  0  0  0  0  0  0  0  0 
    5.2769   -1.7615   -0.2322 N   0  0  0  0  0  0  0  0  0  0  0  0 
    3.7652    1.2813   -0.6434 N   0  0  0  0  0  0  0  0  0  0  0  0 
    3.9686   -3.5908   -0.7288 O   0  0  0  0  0  0  0  0  0  0  0  0 
    4.8842    0.4244   -0.7441 O   0  0  0  0  0  0  0  0  0  0  0  0 
   -2.3189    2.2816   -0.1413 H   0  0  0  0  0  0  0  0  0  0  0  0 
   -1.8818   -0.1631   -0.2215 H   0  0  0  0  0  0  0  0  0  0  0  0 
   -0.4211    3.8850   -0.1295 H   0  0  0  0  0  0  0  0  0  0  0  0 
    0.4652   -1.0019   -0.3108 H   0  0  0  0  0  0  0  0  0  0  0  0 
    1.9083    3.0488   -0.1897 H   0  0  0  0  0  0  0  0  0  0  0  0 
    6.0796   -3.2295    1.5660 H   0  0  0  0  0  0  0  0  0  0  0  0 
    3.7194    1.8400   -1.4938 H   0  0  0  0  0  0  0  0  0  0  0  0 
    3.8360   -4.5002   -0.4050 H   0  0  0  0  0  0  0  0  0  0  0  0 
  1  3  1  0  0  0  0 
  1 16  1  0  0  0  0 
  2 17  1  0  0  0  0 
  2  1  2  0  0  0  0 
  3 18  1  0  0  0  0 
  4  2  1  0  0  0  0 
  5 20  1  0  0  0  0 
  5  3  2  0  0  0  0 
  6  4  2  0  0  0  0 
  6  5  1  0  0  0  0 
  7  6  1  1  0  0  0 
  7 11  1  0  0  0  0 
  8 10  1  0  0  0  0 
  9 12  1  0  0  0  0 
  9 11  2  0  0  0  0 
 10 21  1  0  0  0  0 
 12  8  2  0  0  0  0 
 13  7  1  0  0  0  0 
 14 23  1  0  0  0  0 
 14  8  1  0  0  0  0 
 15 13  1  0  0  0  0 
 15  9  1  0  0  0  0 
 19  4  1  0  0  0  0 
 22 13  1  0  0  0  0 
M  RAD  2   7   2  10   2 
M  END 
>  <HBA> 
6 
 
>  <HBD> 
2 
 
>  <TPSA> 
94.04 
 
>  <cid> 
21536 
 
>  <dipole> 
7.76 
 
>  <excitation_energy_1> 
3.558 
 
>  <excitation_energy_2> 
4.044 
 
>  <excitation_energy_3> 
4.642 
 
>  <excitation_energy_4> 
4.779 
 
>  <homo_energy> 
-6.215 
 
>  <homo_lumo_gap> 
4.027 
 
>  <logP> 
2.001 
 
>  <lumo_energy> 
-2.188 
 
>  <melting_point> 
192.36 
 
>  <molecular_refractivity> 
52.34 
 
>  <oscillator_strength_1> 
0.0627 
 
>  <oscillator_strength_2> 
0.0501 
 
>  <oscillator_strength_3> 
0.0191 
 
>  <oscillator_strength_4> 
0.0186 
 
>  <open_babel_can_smiles> 
[NH]/C(=N\C1=N[C](NO1)c1ccccc1)/O 
 
>  <mulliken_charges> 
23 
1   -0.114611 
2   -0.135861 
3   -0.13514 
4   -0.152598 
5   -0.177112 
6   0.094159 
7   0.432784 
8   0.580434 
9   0.736277 
10   -0.632956 
11   -0.504512 
12   -0.540602 
13   -0.32679 
14   -0.58 
15   -0.391397 
16   0.147961 
17   0.150562 
18   0.147451 
19   0.184139 
20   0.152712 
21   0.29118 
22   0.36183 
23   0.412087 
 
>  <lowdin_charges> 
23 
1   -0.13233 
2   -0.148355 
3   -0.147336 
4   -0.121892 
5   -0.151458 
6   -0.027654 
7   0.105596 
8   0.163077 
9   0.176094 
10   -0.455644 
11   -0.186131 
12   -0.207023 
13   -0.142521 
14   -0.372001 
15   -0.130068 
16   0.166012 
17   0.169085 
18   0.164983 
19   0.184125 
20   0.168023 
21   0.26465 
22   0.298881 
23   0.361886 
 
$$$$ 
 
