PCCDB-ID:  20692 
public computational chemistry database (PCCDB) project, http://pccdb.org 
 
 27 27  0  0  0  0  0  0  0  0999 V2000 
   -0.8959    1.3062   -0.5053 C   0  0  0  0  0  0  0  0  0  0  0  0 
   -5.0687   -2.3091    1.8673 C   0  0  0  0  0  0  0  0  0  0  0  0 
    0.7811   -2.2166    2.7949 C   0  0  0  0  0  0  0  0  0  0  0  0 
   -0.6650    0.1219    0.3420 C   0  0  0  0  0  0  0  0  0  0  0  0 
   -4.4533   -1.9937    0.5681 C   0  0  0  0  0  0  0  0  0  0  0  0 
   -0.6567   -2.4075    2.5630 C   0  0  0  0  0  0  0  0  0  0  0  0 
   -2.4017   -1.3424   -0.5568 C   0  0  0  0  0  0  0  0  0  0  0  0 
   -0.3147   -2.3261    0.0819 C   0  0  0  0  0  0  0  0  0  0  0  0 
   -2.3494   -3.1613    1.0103 C   0  0  0  0  0  0  0  0  0  0  0  0 
   -1.1133    2.2354   -1.1651 N   0  0  0  0  0  0  0  0  0  0  0  0 
   -5.5389   -2.5770    2.8935 N   0  0  0  0  0  0  0  0  0  0  0  0 
    1.9140   -2.0311    2.9645 N   0  0  0  0  0  0  0  0  0  0  0  0 
   -0.9795   -1.1075   -0.3903 N   0  0  0  0  0  0  0  0  0  0  0  0 
   -3.0024   -1.8749    0.6832 N   0  0  0  0  0  0  0  0  0  0  0  0 
   -0.9267   -2.9888    1.2409 N   0  0  0  0  0  0  0  0  0  0  0  0 
   -1.2548    0.2521    1.2632 H   0  0  0  0  0  0  0  0  0  0  0  0 
    0.3918    0.1041    0.6292 H   0  0  0  0  0  0  0  0  0  0  0  0 
   -4.8585   -1.0363    0.2186 H   0  0  0  0  0  0  0  0  0  0  0  0 
   -4.7758   -2.7624   -0.1606 H   0  0  0  0  0  0  0  0  0  0  0  0 
   -1.1639   -1.4462    2.7421 H   0  0  0  0  0  0  0  0  0  0  0  0 
   -1.0334   -3.1045    3.3220 H   0  0  0  0  0  0  0  0  0  0  0  0 
   -2.5322   -2.0512   -1.3960 H   0  0  0  0  0  0  0  0  0  0  0  0 
   -2.9016   -0.4068   -0.8269 H   0  0  0  0  0  0  0  0  0  0  0  0 
    0.7354   -2.1144    0.2921 H   0  0  0  0  0  0  0  0  0  0  0  0 
   -0.3581   -3.0482   -0.7417 H   0  0  0  0  0  0  0  0  0  0  0  0 
   -2.4716   -3.8826    0.1803 H   0  0  0  0  0  0  0  0  0  0  0  0 
   -2.8225   -3.5850    1.9010 H   0  0  0  0  0  0  0  0  0  0  0  0 
  1  4  1  0  0  0  0 
  2 11  3  0  0  0  0 
  3 12  3  0  0  0  0 
  4 17  1  0  0  0  0 
  4 16  1  0  0  0  0 
  5 14  1  0  0  0  0 
  5  2  1  0  0  0  0 
  6 20  1  0  0  0  0 
  6  3  1  0  0  0  0 
  6 21  1  0  0  0  0 
  7 13  1  0  0  0  0 
  7 14  1  0  0  0  0 
  8 24  1  0  0  0  0 
  8 15  1  0  0  0  0 
  9 15  1  0  0  0  0 
  9 27  1  0  0  0  0 
 10  1  3  0  0  0  0 
 13  8  1  0  0  0  0 
 13  4  1  0  0  0  0 
 14  9  1  0  0  0  0 
 15  6  1  0  0  0  0 
 18  5  1  0  0  0  0 
 19  5  1  0  0  0  0 
 22  7  1  0  0  0  0 
 23  7  1  0  0  0  0 
 25  8  1  0  0  0  0 
 26  9  1  0  0  0  0 
M  END 
>  <HBA> 
6 
 
>  <HBD> 
0 
 
>  <TPSA> 
81.09 
 
>  <cid> 
20692 
 
>  <dipole> 
3.69 
 
>  <excitation_energy_1> 
5.548 
 
>  <excitation_energy_2> 
5.658 
 
>  <excitation_energy_3> 
5.918 
 
>  <excitation_energy_4> 
5.968 
 
>  <homo_energy> 
-6.803 
 
>  <homo_lumo_gap> 
6.74 
 
>  <logP> 
-0.837 
 
>  <lumo_energy> 
-0.063 
 
>  <melting_point> 
103.63 
 
>  <molecular_refractivity> 
62.94 
 
>  <oscillator_strength_1> 
0.0014 
 
>  <oscillator_strength_2> 
0.0028 
 
>  <oscillator_strength_3> 
0.0047 
 
>  <oscillator_strength_4> 
0.0042 
 
>  <open_babel_can_smiles> 
N#CCN1CN(CN(C1)CC#N)CC#N 
 
>  <mulliken_charges> 
27 
1   0.36904 
2   0.361341 
3   0.351412 
4   -0.216481 
5   -0.18476 
6   -0.179444 
7   -0.024416 
8   -0.075443 
9   -0.029775 
10   -0.465298 
11   -0.466041 
12   -0.472082 
13   -0.369914 
14   -0.413095 
15   -0.384244 
16   0.192564 
17   0.210901 
18   0.205614 
19   0.177556 
20   0.19483 
21   0.209295 
22   0.144477 
23   0.175643 
24   0.189322 
25   0.175014 
26   0.144861 
27   0.179122 
 
>  <lowdin_charges> 
27 
1   -0.020119 
2   -0.019563 
3   -0.021723 
4   -0.198376 
5   -0.195932 
6   -0.197569 
7   -0.143937 
8   -0.151263 
9   -0.14607 
10   -0.111833 
11   -0.108608 
12   -0.109211 
13   -0.174071 
14   -0.21113 
15   -0.178167 
16   0.166075 
17   0.188573 
18   0.18749 
19   0.160026 
20   0.166551 
21   0.189527 
22   0.13483 
23   0.162906 
24   0.169595 
25   0.161549 
26   0.135029 
27   0.16542 
 
$$$$ 
 
