PCCDB-ID:  19058 
public computational chemistry database (PCCDB) project, http://pccdb.org 
 
 18 17  0  0  0  0  0  0  0  0999 V2000 
    1.2463    0.2739   -0.3543 C   0  0  0  0  0  0  0  0  0  0  0  0 
   -0.0100   -0.0691   -0.7205 C   0  0  0  0  0  0  0  0  0  0  0  0 
    2.4573   -0.1512   -1.0537 C   0  0  0  0  0  0  0  0  0  0  0  0 
   -1.2211    0.3561   -0.0212 C   0  0  0  0  0  0  0  0  0  0  0  0 
    3.7102    1.5379   -0.1697 N   0  0  0  0  0  0  0  0  0  0  0  0 
   -2.4701   -1.3387   -0.8987 N   0  0  0  0  0  0  0  0  0  0  0  0 
    3.6215    0.3803   -0.9450 N   0  0  0  0  0  0  0  0  0  0  0  0 
   -2.3846   -0.1772   -0.1281 N   0  0  0  0  0  0  0  0  0  0  0  0 
    2.3714   -1.2143   -1.9173 O   0  0  0  0  0  0  0  0  0  0  0  0 
   -1.1366    1.4229    0.8379 O   0  0  0  0  0  0  0  0  0  0  0  0 
    1.4150    0.8533    0.5513 H   0  0  0  0  0  0  0  0  0  0  0  0 
   -0.1793   -0.6489   -1.6258 H   0  0  0  0  0  0  0  0  0  0  0  0 
    4.6376    1.9226   -0.3177 H   0  0  0  0  0  0  0  0  0  0  0  0 
    3.0270    2.2467   -0.4374 H   0  0  0  0  0  0  0  0  0  0  0  0 
   -1.7870   -2.0453   -0.6250 H   0  0  0  0  0  0  0  0  0  0  0  0 
   -3.3973   -1.7239   -0.7500 H   0  0  0  0  0  0  0  0  0  0  0  0 
    1.7054   -1.8303   -1.5723 H   0  0  0  0  0  0  0  0  0  0  0  0 
   -0.4681    2.0360    0.4926 H   0  0  0  0  0  0  0  0  0  0  0  0 
  1 11  1  0  0  0  0 
  2  1  2  0  0  0  0 
  2  4  1  0  0  0  0 
  3  7  2  0  0  0  0 
  3  1  1  0  0  0  0 
  4 10  1  0  0  0  0 
  6 16  1  0  0  0  0 
  6 15  1  0  0  0  0 
  6  8  1  0  0  0  0 
  7  5  1  0  0  0  0 
  8  4  2  0  0  0  0 
  9 17  1  0  0  0  0 
  9  3  1  0  0  0  0 
 12  2  1  0  0  0  0 
 13  5  1  0  0  0  0 
 14  5  1  0  0  0  0 
 18 10  1  0  0  0  0 
M  END 
>  <HBA> 
6 
 
>  <HBD> 
4 
 
>  <TPSA> 
110.24 
 
>  <cid> 
19058 
 
>  <dipole> 
0.02 
 
>  <excitation_energy_1> 
3.351 
 
>  <excitation_energy_2> 
3.42 
 
>  <excitation_energy_3> 
4.616 
 
>  <excitation_energy_4> 
4.763 
 
>  <homo_energy> 
-5.744 
 
>  <homo_lumo_gap> 
3.665 
 
>  <logP> 
-0.295 
 
>  <lumo_energy> 
-2.079 
 
>  <melting_point> 
190.19 
 
>  <molecular_refractivity> 
32.29 
 
>  <oscillator_strength_1> 
0.3538 
 
>  <oscillator_strength_2> 
0.0002 
 
>  <oscillator_strength_3> 
0.0 
 
>  <oscillator_strength_4> 
0.107 
 
>  <open_babel_can_smiles> 
N/N=C(\C=C\C(=N/N)\O)/O 
 
>  <mulliken_charges> 
18 
1   -0.21203 
2   -0.212369 
3   0.474605 
4   0.474755 
5   -0.569492 
6   -0.569744 
7   -0.312927 
8   -0.313156 
9   -0.597974 
10   -0.597854 
11   0.173059 
12   0.17337 
13   0.337834 
14   0.306246 
15   0.306281 
16   0.337742 
17   0.400845 
18   0.400809 
 
>  <lowdin_charges> 
18 
1   -0.196868 
2   -0.196802 
3   0.081746 
4   0.081921 
5   -0.443443 
6   -0.443639 
7   -0.123589 
8   -0.123908 
9   -0.377859 
10   -0.377699 
11   0.173936 
12   0.17411 
13   0.2757 
14   0.255274 
15   0.255305 
16   0.275626 
17   0.355118 
18   0.355071 
 
$$$$ 
 
