PCCDB-ID:  14918 
public computational chemistry database (PCCDB) project, http://pccdb.org 
 
 15 15  0  0  0  0  0  0  0  0999 V2000 
    2.4907    1.0326    0.3731 C   0  0  0  0  0  0  0  0  0  0  0  0 
    1.1665   -1.3105   -3.0182 C   0  0  0  0  0  0  0  0  0  0  0  0 
    1.1207   -2.3209   -3.9225 C   0  0  0  0  0  0  0  0  0  0  0  0 
    2.7765   -2.8086   -2.5743 C   0  0  0  0  0  0  0  0  0  0  0  0 
    2.2531   -1.6263   -2.1280 C   0  0  0  0  0  0  0  0  0  0  0  0 
    2.7606   -0.8884   -0.9620 C   0  0  0  0  0  0  0  0  0  0  0  0 
    3.6926   -1.2433   -0.2665 O   0  0  0  0  0  0  0  0  0  0  0  0 
    2.0573    0.2498   -0.7496 O   0  0  0  0  0  0  0  0  0  0  0  0 
    2.1017   -3.2440   -3.6616 O   0  0  0  0  0  0  0  0  0  0  0  0 
    1.8362    1.9047    0.3912 H   0  0  0  0  0  0  0  0  0  0  0  0 
    3.5337    1.3366    0.2509 H   0  0  0  0  0  0  0  0  0  0  0  0 
    2.3953    0.4611    1.3004 H   0  0  0  0  0  0  0  0  0  0  0  0 
    0.5231   -0.4447   -2.9695 H   0  0  0  0  0  0  0  0  0  0  0  0 
    0.4941   -2.5383   -4.7735 H   0  0  0  0  0  0  0  0  0  0  0  0 
    3.5924   -3.4226   -2.2264 H   0  0  0  0  0  0  0  0  0  0  0  0 
  1 10  1  0  0  0  0 
  1 12  1  0  0  0  0 
  2 13  1  0  0  0  0 
  2  5  1  0  0  0  0 
  3  9  1  0  0  0  0 
  3  2  2  0  0  0  0 
  4 15  1  0  0  0  0 
  4  5  2  0  0  0  0 
  5  6  1  0  0  0  0 
  6  8  1  0  0  0  0 
  6  7  2  0  0  0  0 
  8  1  1  0  0  0  0 
  9  4  1  0  0  0  0 
 11  1  1  0  0  0  0 
 14  3  1  0  0  0  0 
M  END 
>  <HBA> 
3 
 
>  <HBD> 
0 
 
>  <TPSA> 
39.44 
 
>  <cid> 
14918 
 
>  <dipole> 
2.03 
 
>  <excitation_energy_1> 
5.175 
 
>  <excitation_energy_2> 
5.196 
 
>  <excitation_energy_3> 
6.159 
 
>  <excitation_energy_4> 
6.173 
 
>  <homo_energy> 
-6.553 
 
>  <homo_lumo_gap> 
5.802 
 
>  <logP> 
1.066 
 
>  <lumo_energy> 
-0.751 
 
>  <melting_point> 
28.49 
 
>  <molecular_refractivity> 
29.99 
 
>  <oscillator_strength_1> 
0.0002 
 
>  <oscillator_strength_2> 
0.0585 
 
>  <oscillator_strength_3> 
0.003 
 
>  <oscillator_strength_4> 
0.0306 
 
>  <open_babel_can_smiles> 
COC(=O)c1cocc1 
 
>  <mulliken_charges> 
15 
1   -0.215803 
2   -0.192094 
3   0.072603 
4   0.083761 
5   0.014037 
6   0.5758 
7   -0.498458 
8   -0.46437 
9   -0.3934 
10   0.163696 
11   0.171666 
12   0.171164 
13   0.160202 
14   0.166137 
15   0.18506 
 
>  <lowdin_charges> 
15 
1   -0.276971 
2   -0.191479 
3   -0.079687 
4   -0.044224 
5   -0.085024 
6   0.19804 
7   -0.273572 
8   -0.19342 
9   -0.078195 
10   0.160327 
11   0.158857 
12   0.159828 
13   0.181547 
14   0.176044 
15   0.187929 
 
$$$$ 
 
