PCCDB-ID:  14345 
public computational chemistry database (PCCDB) project, http://pccdb.org 
 
 29 29  0  0  0  0  0  0  0  0999 V2000 
    2.1010    2.0529   -0.5922 C   0  0  0  0  0  0  0  0  0  0  0  0 
    6.0325   -1.8218   -3.8017 C   0  0  0  0  0  0  0  0  0  0  0  0 
    1.9722   -4.4059    0.7158 C   0  0  0  0  0  0  0  0  0  0  0  0 
    4.5679   -4.7394   -2.6112 C   0  0  0  0  0  0  0  0  0  0  0  0 
    3.7605   -0.2582   -1.5025 C   0  0  0  0  0  0  0  0  0  0  0  0 
    2.3889   -1.7839   -0.2181 C   0  0  0  0  0  0  0  0  0  0  0  0 
    1.8000    0.6269   -0.1590 C   0  0  0  0  0  0  0  0  0  0  0  0 
    2.6816   -0.4793   -0.6483 C   0  0  0  0  0  0  0  0  0  0  0  0 
    4.5561   -1.3248   -1.9423 C   0  0  0  0  0  0  0  0  0  0  0  0 
    3.1814   -2.8475   -0.6311 C   0  0  0  0  0  0  0  0  0  0  0  0 
    4.2747   -2.6333   -1.5102 C   0  0  0  0  0  0  0  0  0  0  0  0 
    0.8527    0.3906    0.5777 O   0  0  0  0  0  0  0  0  0  0  0  0 
    5.6142   -0.9750   -2.7317 O   0  0  0  0  0  0  0  0  0  0  0  0 
    3.0062   -4.1392   -0.2226 O   0  0  0  0  0  0  0  0  0  0  0  0 
    5.1216   -3.6544   -1.8564 O   0  0  0  0  0  0  0  0  0  0  0  0 
    3.1069    2.3565   -0.2788 H   0  0  0  0  0  0  0  0  0  0  0  0 
    1.3646    2.7183   -0.1384 H   0  0  0  0  0  0  0  0  0  0  0  0 
    2.0561    2.1515   -1.6832 H   0  0  0  0  0  0  0  0  0  0  0  0 
    6.6137   -1.1803   -4.4694 H   0  0  0  0  0  0  0  0  0  0  0  0 
    5.1711   -2.2223   -4.3512 H   0  0  0  0  0  0  0  0  0  0  0  0 
    6.6534   -2.6467   -3.4465 H   0  0  0  0  0  0  0  0  0  0  0  0 
    0.9830   -4.1706    0.3031 H   0  0  0  0  0  0  0  0  0  0  0  0 
    2.1196   -3.8395    1.6435 H   0  0  0  0  0  0  0  0  0  0  0  0 
    2.0333   -5.4748    0.9278 H   0  0  0  0  0  0  0  0  0  0  0  0 
    5.4084   -5.3974   -2.8428 H   0  0  0  0  0  0  0  0  0  0  0  0 
    4.1230   -4.3756   -3.5469 H   0  0  0  0  0  0  0  0  0  0  0  0 
    3.8175   -5.2842   -2.0348 H   0  0  0  0  0  0  0  0  0  0  0  0 
    4.0192    0.7318   -1.8597 H   0  0  0  0  0  0  0  0  0  0  0  0 
    1.5477   -1.9176    0.4499 H   0  0  0  0  0  0  0  0  0  0  0  0 
  1 16  1  0  0  0  0 
  1  7  1  0  0  0  0 
  1 17  1  0  0  0  0 
  2 21  1  0  0  0  0 
  2 13  1  0  0  0  0 
  3 24  1  0  0  0  0 
  3 23  1  0  0  0  0 
  4 27  1  0  0  0  0 
  4 15  1  0  0  0  0 
  5  8  2  0  0  0  0 
  6 29  1  0  0  0  0 
  7 12  2  0  0  0  0 
  8  6  1  0  0  0  0 
  8  7  1  0  0  0  0 
  9 11  2  0  0  0  0 
  9  5  1  0  0  0  0 
 10 14  1  0  0  0  0 
 10  6  2  0  0  0  0 
 11 10  1  0  0  0  0 
 13  9  1  0  0  0  0 
 14  3  1  0  0  0  0 
 15 11  1  0  0  0  0 
 18  1  1  0  0  0  0 
 19  2  1  0  0  0  0 
 20  2  1  0  0  0  0 
 22  3  1  0  0  0  0 
 25  4  1  0  0  0  0 
 26  4  1  0  0  0  0 
 28  5  1  0  0  0  0 
M  END 
>  <HBA> 
4 
 
>  <HBD> 
0 
 
>  <TPSA> 
44.76 
 
>  <cid> 
14345 
 
>  <dipole> 
3.09 
 
>  <excitation_energy_1> 
3.809 
 
>  <excitation_energy_2> 
4.011 
 
>  <excitation_energy_3> 
4.377 
 
>  <excitation_energy_4> 
5.394 
 
>  <homo_energy> 
-6.008 
 
>  <homo_lumo_gap> 
4.729 
 
>  <logP> 
1.915 
 
>  <lumo_energy> 
-1.279 
 
>  <melting_point> 
56.54 
 
>  <molecular_refractivity> 
56.11 
 
>  <oscillator_strength_1> 
0.0007 
 
>  <oscillator_strength_2> 
0.0322 
 
>  <oscillator_strength_3> 
0.216 
 
>  <oscillator_strength_4> 
0.0059 
 
>  <open_babel_can_smiles> 
COc1cc(cc(c1OC)OC)C(=O)C 
 
>  <mulliken_charges> 
29 
1   -0.540392 
2   -0.205512 
3   -0.217744 
4   -0.21754 
5   -0.259781 
6   -0.261502 
7   0.405755 
8   0.084758 
9   0.341793 
10   0.359043 
11   0.268805 
12   -0.461182 
13   -0.522844 
14   -0.517338 
15   -0.518977 
16   0.173059 
17   0.178542 
18   0.170619 
19   0.158187 
20   0.139759 
21   0.171411 
22   0.15937 
23   0.163361 
24   0.16943 
25   0.160782 
26   0.137662 
27   0.177504 
28   0.139145 
29   0.163828 
 
>  <lowdin_charges> 
29 
1   -0.473606 
2   -0.27743 
3   -0.274449 
4   -0.28067 
5   -0.186223 
6   -0.20239 
7   0.16176 
8   -0.046164 
9   0.084202 
10   0.082369 
11   0.044757 
12   -0.249394 
13   -0.207841 
14   -0.196613 
15   -0.213281 
16   0.170398 
17   0.174646 
18   0.168063 
19   0.156422 
20   0.141934 
21   0.156433 
22   0.148611 
23   0.1521 
24   0.160959 
25   0.158046 
26   0.137026 
27   0.159626 
28   0.169842 
29   0.180868 
 
$$$$ 
 
