PCCDB-ID:  41223 
public computational chemistry database (PCCDB) project, http://pccdb.org 
 
 24 23  0  0  0  0  0  0  0  0999 V2000 
    3.0051   -2.1670   -1.6998 C   0  0  0  0  0  0  0  0  0  0  0  0 
    1.8435   -1.1723   -1.6190 C   0  0  0  0  0  0  0  0  0  0  0  0 
   -0.0169   -0.6642    1.2353 C   0  0  0  0  0  0  0  0  0  0  0  0 
   -0.3918   -1.1875    2.6263 C   0  0  0  0  0  0  0  0  0  0  0  0 
    1.4609   -0.9119    0.9024 C   0  0  0  0  0  0  0  0  0  0  0  0 
   -1.8511   -0.9098    3.0009 C   0  0  0  0  0  0  0  0  0  0  0  0 
    2.2157    0.9103   -0.5431 N   0  0  0  0  0  0  0  0  0  0  0  0 
    1.8462   -0.3697   -0.4007 N   0  0  0  0  0  0  0  0  0  0  0  0 
   -2.1964    0.4690    2.9416 O   0  0  0  0  0  0  0  0  0  0  0  0 
    2.2028    1.5760    0.4913 O   0  0  0  0  0  0  0  0  0  0  0  0 
    2.9446   -2.7367   -2.6338 H   0  0  0  0  0  0  0  0  0  0  0  0 
    2.9881   -2.8833   -0.8710 H   0  0  0  0  0  0  0  0  0  0  0  0 
    3.9641   -1.6396   -1.6776 H   0  0  0  0  0  0  0  0  0  0  0  0 
    0.8813   -1.6951   -1.6908 H   0  0  0  0  0  0  0  0  0  0  0  0 
    1.8960   -0.4576   -2.4448 H   0  0  0  0  0  0  0  0  0  0  0  0 
   -0.2175    0.4097    1.1856 H   0  0  0  0  0  0  0  0  0  0  0  0 
   -0.6520   -1.1434    0.4772 H   0  0  0  0  0  0  0  0  0  0  0  0 
    0.2666   -0.7285    3.3803 H   0  0  0  0  0  0  0  0  0  0  0  0 
   -0.2177   -2.2720    2.6900 H   0  0  0  0  0  0  0  0  0  0  0  0 
    1.6890   -1.9830    0.8981 H   0  0  0  0  0  0  0  0  0  0  0  0 
    2.0982   -0.4248    1.6466 H   0  0  0  0  0  0  0  0  0  0  0  0 
   -2.0646   -1.3304    3.9971 H   0  0  0  0  0  0  0  0  0  0  0  0 
   -2.5222   -1.4041    2.2894 H   0  0  0  0  0  0  0  0  0  0  0  0 
   -1.6525    0.9376    3.5944 H   0  0  0  0  0  0  0  0  0  0  0  0 
  1 13  1  0  0  0  0 
  1  2  1  0  0  0  0 
  1 12  1  0  0  0  0 
  2  8  1  0  0  0  0 
  3  4  1  0  0  0  0 
  4 19  1  0  0  0  0 
  4  6  1  0  0  0  0 
  4 18  1  0  0  0  0 
  5  3  1  0  0  0  0 
  5 21  1  0  0  0  0 
  6 22  1  0  0  0  0 
  7  8  1  0  0  0  0 
  7 10  2  0  0  0  0 
  8  5  1  0  0  0  0 
  9  6  1  0  0  0  0 
  9 24  1  0  0  0  0 
 11  1  1  0  0  0  0 
 14  2  1  0  0  0  0 
 15  2  1  0  0  0  0 
 16  3  1  0  0  0  0 
 17  3  1  0  0  0  0 
 20  5  1  0  0  0  0 
 23  6  1  0  0  0  0 
M  END 
>  <HBA> 
4 
 
>  <HBD> 
1 
 
>  <TPSA> 
52.9 
 
>  <cid> 
41223 
 
>  <dipole> 
4.35 
 
>  <excitation_energy_1> 
3.392 
 
>  <excitation_energy_2> 
5.599 
 
>  <excitation_energy_3> 
5.749 
 
>  <excitation_energy_4> 
5.889 
 
>  <homo_energy> 
-5.932 
 
>  <homo_lumo_gap> 
5.238 
 
>  <logP> 
0.762 
 
>  <lumo_energy> 
-0.694 
 
>  <melting_point> 
13.74 
 
>  <molecular_refractivity> 
39.75 
 
>  <oscillator_strength_1> 
0.001 
 
>  <oscillator_strength_2> 
0.0123 
 
>  <oscillator_strength_3> 
0.1327 
 
>  <oscillator_strength_4> 
0.0034 
 
>  <open_babel_can_smiles> 
OCCCCN(N=O)CC 
 
>  <mulliken_charges> 
24 
1   -0.448075 
2   -0.13838 
3   -0.251412 
4   -0.289337 
5   -0.150617 
6   -0.030374 
7   0.147807 
8   -0.212956 
9   -0.607255 
10   -0.390284 
11   0.155222 
12   0.152938 
13   0.167698 
14   0.154709 
15   0.179542 
16   0.180546 
17   0.132889 
18   0.132426 
19   0.130147 
20   0.146929 
21   0.179333 
22   0.123189 
23   0.145715 
24   0.389603 
 
>  <lowdin_charges> 
24 
1   -0.452665 
2   -0.199405 
3   -0.280998 
4   -0.294143 
5   -0.217339 
6   -0.133207 
7   0.050056 
8   -0.040299 
9   -0.467422 
10   -0.282039 
11   0.159162 
12   0.152189 
13   0.160868 
14   0.149377 
15   0.168892 
16   0.163844 
17   0.142741 
18   0.140853 
19   0.142109 
20   0.148651 
21   0.169167 
22   0.128144 
23   0.147431 
24   0.344035 
 
$$$$ 
 
