PCCDB-ID:  8913 
public computational chemistry database (PCCDB) project, http://pccdb.org 
 
 27 26  0  0  0  0  0  0  0  0999 V2000 
    0.2415    0.2813   -0.0945 C   0  0  0  0  0  0  0  0  0  0  0  0 
    0.0247   -0.3058    1.3082 C   0  0  0  0  0  0  0  0  0  0  0  0 
    1.4967   -0.2296   -0.8201 C   0  0  0  0  0  0  0  0  0  0  0  0 
   -1.1863    0.3072    2.0236 C   0  0  0  0  0  0  0  0  0  0  0  0 
    1.4544   -1.7114   -1.2044 C   0  0  0  0  0  0  0  0  0  0  0  0 
   -1.4962   -0.2997    3.3995 C   0  0  0  0  0  0  0  0  0  0  0  0 
    0.4778   -1.1255    4.6335 C   0  0  0  0  0  0  0  0  0  0  0  0 
    2.6497   -2.0667   -1.9834 N   0  0  0  0  0  0  0  0  0  0  0  0 
   -0.4377   -0.1237    4.3933 N   0  0  0  0  0  0  0  0  0  0  0  0 
    0.4371   -2.2345    4.1501 O   0  0  0  0  0  0  0  0  0  0  0  0 
    1.4683   -0.7882    5.5155 O   0  0  0  0  0  0  0  0  0  0  0  0 
    0.3068    1.3761   -0.0137 H   0  0  0  0  0  0  0  0  0  0  0  0 
   -0.6442    0.0782   -0.7151 H   0  0  0  0  0  0  0  0  0  0  0  0 
    0.9294   -0.1423    1.9097 H   0  0  0  0  0  0  0  0  0  0  0  0 
   -0.1043   -1.3935    1.2549 H   0  0  0  0  0  0  0  0  0  0  0  0 
    2.3799   -0.0473   -0.1881 H   0  0  0  0  0  0  0  0  0  0  0  0 
    1.6524    0.3483   -1.7393 H   0  0  0  0  0  0  0  0  0  0  0  0 
   -2.0835    0.1836    1.3999 H   0  0  0  0  0  0  0  0  0  0  0  0 
   -1.0429    1.3944    2.1271 H   0  0  0  0  0  0  0  0  0  0  0  0 
    0.5788   -1.8904   -1.8431 H   0  0  0  0  0  0  0  0  0  0  0  0 
    1.3178   -2.3307   -0.3009 H   0  0  0  0  0  0  0  0  0  0  0  0 
   -1.6538   -1.3775    3.3164 H   0  0  0  0  0  0  0  0  0  0  0  0 
   -2.4161    0.1427    3.8014 H   0  0  0  0  0  0  0  0  0  0  0  0 
    3.4721   -1.9947   -1.3840 H   0  0  0  0  0  0  0  0  0  0  0  0 
    2.5977   -3.0467   -2.2589 H   0  0  0  0  0  0  0  0  0  0  0  0 
   -0.1609    0.8307    4.5857 H   0  0  0  0  0  0  0  0  0  0  0  0 
    1.2507    0.0359    5.9804 H   0  0  0  0  0  0  0  0  0  0  0  0 
  1 12  1  0  0  0  0 
  1  2  1  0  0  0  0 
  2 14  1  0  0  0  0 
  2  4  1  0  0  0  0 
  3 16  1  0  0  0  0 
  3  1  1  0  0  0  0 
  4 19  1  0  0  0  0 
  4  6  1  0  0  0  0 
  5  3  1  0  0  0  0 
  5 21  1  0  0  0  0 
  6 23  1  0  0  0  0 
  6  9  1  0  0  0  0 
  7 11  1  0  0  0  0 
  8 24  1  0  0  0  0 
  8  5  1  0  0  0  0 
  9 26  1  0  0  0  0 
  9  7  1  0  0  0  0 
 10  7  2  0  0  0  0 
 11 27  1  0  0  0  0 
 13  1  1  0  0  0  0 
 15  2  1  0  0  0  0 
 17  3  1  0  0  0  0 
 18  4  1  0  0  0  0 
 20  5  1  0  0  0  0 
 22  6  1  0  0  0  0 
 25  8  1  0  0  0  0 
M  END 
>  <HBA> 
4 
 
>  <HBD> 
3 
 
>  <TPSA> 
75.35 
 
>  <cid> 
8913 
 
>  <dipole> 
4.1 
 
>  <excitation_energy_1> 
5.511 
 
>  <excitation_energy_2> 
5.639 
 
>  <excitation_energy_3> 
5.763 
 
>  <excitation_energy_4> 
6.239 
 
>  <homo_energy> 
-6.153 
 
>  <homo_lumo_gap> 
7.181 
 
>  <logP> 
1.864 
 
>  <lumo_energy> 
1.029 
 
>  <melting_point> 
141.69 
 
>  <molecular_refractivity> 
43.43 
 
>  <oscillator_strength_1> 
0.0003 
 
>  <oscillator_strength_2> 
0.0143 
 
>  <oscillator_strength_3> 
0.0031 
 
>  <oscillator_strength_4> 
0.0001 
 
>  <open_babel_can_smiles> 
NCCCCCCNC(=O)O 
 
>  <mulliken_charges> 
27 
1   -0.26005 
2   -0.253417 
3   -0.249501 
4   -0.264577 
5   -0.138547 
6   -0.139622 
7   0.750368 
8   -0.717548 
9   -0.613282 
10   -0.484614 
11   -0.588196 
12   0.125232 
13   0.127901 
14   0.131702 
15   0.155953 
16   0.121833 
17   0.146386 
18   0.138912 
19   0.121426 
20   0.134197 
21   0.126164 
22   0.189639 
23   0.144364 
24   0.291175 
25   0.294276 
26   0.311515 
27   0.398313 
 
>  <lowdin_charges> 
27 
1   -0.273271 
2   -0.278287 
3   -0.279762 
4   -0.281884 
5   -0.208708 
6   -0.195838 
7   0.205448 
8   -0.557819 
9   -0.309104 
10   -0.288017 
11   -0.374007 
12   0.137104 
13   0.138169 
14   0.141219 
15   0.148854 
16   0.135499 
17   0.150877 
18   0.147974 
19   0.131897 
20   0.139297 
21   0.122846 
22   0.172273 
23   0.14747 
24   0.250981 
25   0.251569 
26   0.271857 
27   0.353363 
 
$$$$ 
 
