PCCDB-ID:  49351 
public computational chemistry database (PCCDB) project, http://pccdb.org 
 
 29 29  0  0  0  0  0  0  0  0999 V2000 
    2.8858   -2.2446    0.3497 C   0  0  0  0  0  0  0  0  0  0  0  0 
   -0.7832   -4.8908    6.0239 C   0  0  0  0  0  0  0  0  0  0  0  0 
    1.4198   -0.7675    3.8010 C   0  0  0  0  0  0  0  0  0  0  0  0 
   -0.5242   -2.1455    4.2665 C   0  0  0  0  0  0  0  0  0  0  0  0 
    1.3974   -3.0954    3.1439 C   0  0  0  0  0  0  0  0  0  0  0  0 
    3.7389   -1.9086    1.5535 C   0  0  0  0  0  0  0  0  0  0  0  0 
   -0.9412   -5.1693    4.5454 C   0  0  0  0  0  0  0  0  0  0  0  0 
    0.1262   -0.9063    4.3119 C   0  0  0  0  0  0  0  0  0  0  0  0 
    2.0607   -1.8624    3.1950 C   0  0  0  0  0  0  0  0  0  0  0  0 
    0.1126   -3.2537    3.6924 C   0  0  0  0  0  0  0  0  0  0  0  0 
   -0.6093    0.2299    4.9599 C   0  0  0  0  0  0  0  0  0  0  0  0 
    3.3801   -1.7039    2.7540 N   0  0  0  0  0  0  0  0  0  0  0  0 
   -0.5200   -4.4946    3.5554 N   0  0  0  0  0  0  0  0  0  0  0  0 
    5.0710   -1.7838    1.2975 O   0  0  0  0  0  0  0  0  0  0  0  0 
   -1.6039   -6.3207    4.2446 O   0  0  0  0  0  0  0  0  0  0  0  0 
   -1.5269    0.0779    5.7323 O   0  0  0  0  0  0  0  0  0  0  0  0 
   -0.1982    1.4865    4.6363 O   0  0  0  0  0  0  0  0  0  0  0  0 
    1.8249   -2.2495    0.6015 H   0  0  0  0  0  0  0  0  0  0  0  0 
    3.1503   -3.2322   -0.0478 H   0  0  0  0  0  0  0  0  0  0  0  0 
    3.0562   -1.5079   -0.4457 H   0  0  0  0  0  0  0  0  0  0  0  0 
   -0.1729   -4.0050    6.2013 H   0  0  0  0  0  0  0  0  0  0  0  0 
   -0.3087   -5.7494    6.5159 H   0  0  0  0  0  0  0  0  0  0  0  0 
   -1.7619   -4.7339    6.4936 H   0  0  0  0  0  0  0  0  0  0  0  0 
    1.9812    0.1586    3.8904 H   0  0  0  0  0  0  0  0  0  0  0  0 
   -1.5274   -2.2272    4.6690 H   0  0  0  0  0  0  0  0  0  0  0  0 
    1.8867   -3.9586    2.7039 H   0  0  0  0  0  0  0  0  0  0  0  0 
    5.2303   -1.9240    0.3514 H   0  0  0  0  0  0  0  0  0  0  0  0 
   -1.8538   -6.7703    5.0666 H   0  0  0  0  0  0  0  0  0  0  0  0 
    0.4459    1.4429    3.9109 H   0  0  0  0  0  0  0  0  0  0  0  0 
  1 18  1  0  0  0  0 
  1  6  1  0  0  0  0 
  2 21  1  0  0  0  0 
  2 23  1  0  0  0  0 
  2 22  1  0  0  0  0 
  3 24  1  0  0  0  0 
  3  8  2  0  0  0  0 
  4  8  1  0  0  0  0 
  4 25  1  0  0  0  0 
  5  9  2  0  0  0  0 
  5 10  1  0  0  0  0 
  6 12  2  0  0  0  0 
  7  2  1  0  0  0  0 
  8 11  1  0  0  0  0 
  9  3  1  0  0  0  0 
 10  4  2  0  0  0  0 
 11 16  2  0  0  0  0 
 12  9  1  0  0  0  0 
 13 10  1  0  0  0  0 
 13  7  2  0  0  0  0 
 14  6  1  0  0  0  0 
 15  7  1  0  0  0  0 
 15 28  1  0  0  0  0 
 17 11  1  0  0  0  0 
 19  1  1  0  0  0  0 
 20  1  1  0  0  0  0 
 26  5  1  0  0  0  0 
 27 14  1  0  0  0  0 
 29 17  1  0  0  0  0 
M  END 
>  <HBA> 
6 
 
>  <HBD> 
3 
 
>  <TPSA> 
95.5 
 
>  <cid> 
49351 
 
>  <dipole> 
5.19 
 
>  <excitation_energy_1> 
4.079 
 
>  <excitation_energy_2> 
4.611 
 
>  <excitation_energy_3> 
4.779 
 
>  <excitation_energy_4> 
4.847 
 
>  <homo_energy> 
-5.981 
 
>  <homo_lumo_gap> 
4.849 
 
>  <logP> 
1.448 
 
>  <lumo_energy> 
-1.132 
 
>  <melting_point> 
207.21 
 
>  <molecular_refractivity> 
62.03 
 
>  <oscillator_strength_1> 
0.0602 
 
>  <oscillator_strength_2> 
0.0059 
 
>  <oscillator_strength_3> 
0.0246 
 
>  <oscillator_strength_4> 
0.186 
 
>  <open_babel_can_smiles> 
C/C(=N\c1cc(/N=C(/O)\C)cc(c1)C(=O)O)/O 
 
>  <mulliken_charges> 
29 
1   -0.55646 
2   -0.555935 
3   -0.240888 
4   -0.198651 
5   -0.182989 
6   0.483149 
7   0.485883 
8   0.048453 
9   0.246412 
10   0.244643 
11   0.551167 
12   -0.471808 
13   -0.474503 
14   -0.565544 
15   -0.566757 
16   -0.453285 
17   -0.576325 
18   0.202648 
19   0.183067 
20   0.172788 
21   0.204509 
22   0.172166 
23   0.185936 
24   0.135531 
25   0.156818 
26   0.13617 
27   0.411068 
28   0.411262 
29   0.411476 
 
>  <lowdin_charges> 
29 
1   -0.481535 
2   -0.483286 
3   -0.201144 
4   -0.178595 
5   -0.19282 
6   0.149978 
7   0.15386 
8   -0.049306 
9   0.055211 
10   0.054463 
11   0.193568 
12   -0.172563 
13   -0.174886 
14   -0.353645 
15   -0.356151 
16   -0.245353 
17   -0.35704 
18   0.18495 
19   0.173949 
20   0.169817 
21   0.18776 
22   0.169793 
23   0.175581 
24   0.162065 
25   0.175346 
26   0.167291 
27   0.356526 
28   0.35863 
29   0.357536 
 
$$$$ 
 
