PCCDB-ID:  38028 
public computational chemistry database (PCCDB) project, http://pccdb.org 
 
 19 19  0  0  0  0  0  0  0  0999 V2000 
   -1.6556    0.3066    0.1489 C   0  0  0  0  0  0  0  0  0  0  0  0 
   -0.8141    1.1471    0.8812 C   0  0  0  0  0  0  0  0  0  0  0  0 
   -1.1129   -0.6145   -0.7532 C   0  0  0  0  0  0  0  0  0  0  0  0 
    0.5629    1.0631    0.7099 C   0  0  0  0  0  0  0  0  0  0  0  0 
    0.2630   -0.7027   -0.9299 C   0  0  0  0  0  0  0  0  0  0  0  0 
    2.5750    0.1332   -0.2996 C   0  0  0  0  0  0  0  0  0  0  0  0 
    3.0839   -1.6180   -2.0052 C   0  0  0  0  0  0  0  0  0  0  0  0 
    1.1279    0.1395   -0.1969 C   0  0  0  0  0  0  0  0  0  0  0  0 
    3.4161   -0.6077   -1.0616 C   0  0  0  0  0  0  0  0  0  0  0  0 
    2.7557   -2.4362   -2.7649 N   0  0  0  0  0  0  0  0  0  0  0  0 
    4.8706   -0.3654   -0.9299 N   0  0  0  0  0  0  0  0  0  0  0  0 
    5.2498    0.4849   -0.1275 O   0  0  0  0  0  0  0  0  0  0  0  0 
    5.6008   -1.0450   -1.6460 O   0  0  0  0  0  0  0  0  0  0  0  0 
   -2.7323    0.3675    0.2801 H   0  0  0  0  0  0  0  0  0  0  0  0 
   -1.2304    1.8636    1.5831 H   0  0  0  0  0  0  0  0  0  0  0  0 
   -1.7675   -1.2677   -1.3226 H   0  0  0  0  0  0  0  0  0  0  0  0 
    1.2204    1.7160    1.2781 H   0  0  0  0  0  0  0  0  0  0  0  0 
    0.6635   -1.4224   -1.6331 H   0  0  0  0  0  0  0  0  0  0  0  0 
    3.0966    0.8404    0.3410 H   0  0  0  0  0  0  0  0  0  0  0  0 
  1 14  1  0  0  0  0 
  1  2  2  0  0  0  0 
  2 15  1  0  0  0  0 
  3  1  1  0  0  0  0 
  4  2  1  0  0  0  0 
  4 17  1  0  0  0  0 
  5  3  2  0  0  0  0 
  5  8  1  0  0  0  0 
  6  8  1  0  0  0  0 
  6 19  1  0  0  0  0 
  7  9  1  0  0  0  0 
  8  4  2  0  0  0  0 
  9 11  1  0  0  0  0 
  9  6  2  0  0  0  0 
 10  7  3  0  0  0  0 
 11 12  2  0  0  0  0 
 13 11  2  0  0  0  0 
 16  3  1  0  0  0  0 
 18  5  1  0  0  0  0 
M  END 
>  <HBA> 
1 
 
>  <HBD> 
0 
 
>  <TPSA> 
69.61 
 
>  <cid> 
38028 
 
>  <dipole> 
6.9 
 
>  <excitation_energy_1> 
3.618 
 
>  <excitation_energy_2> 
3.779 
 
>  <excitation_energy_3> 
3.835 
 
>  <excitation_energy_4> 
4.184 
 
>  <homo_energy> 
-7.312 
 
>  <homo_lumo_gap> 
4.068 
 
>  <logP> 
2.351 
 
>  <lumo_energy> 
-3.244 
 
>  <melting_point> 
94.25 
 
>  <molecular_refractivity> 
49.19 
 
>  <oscillator_strength_1> 
0.0004 
 
>  <oscillator_strength_2> 
0.399 
 
>  <oscillator_strength_3> 
0.1591 
 
>  <oscillator_strength_4> 
0.0002 
 
>  <open_babel_can_smiles> 
N#C/C(=C\c1ccccc1)/N(=O)=O 
 
>  <mulliken_charges> 
19 
1   -0.113602 
2   -0.132537 
3   -0.134056 
4   -0.173787 
5   -0.174855 
6   -0.206939 
7   0.307752 
8   0.178885 
9   0.279521 
10   -0.492466 
11   0.445391 
12   -0.400843 
13   -0.384665 
14   0.152401 
15   0.151215 
16   0.155532 
17   0.154081 
18   0.181778 
19   0.207194 
 
>  <lowdin_charges> 
19 
1   -0.122184 
2   -0.152048 
3   -0.147346 
4   -0.13448 
5   -0.136044 
6   -0.074937 
7   -0.007772 
8   -0.014447 
9   -0.031446 
10   -0.089399 
11   0.313758 
12   -0.247225 
13   -0.221084 
14   0.166964 
15   0.169686 
16   0.171885 
17   0.169621 
18   0.18617 
19   0.200326 
 
$$$$ 
 
