PCCDB-ID:  25320 
public computational chemistry database (PCCDB) project, http://pccdb.org 
 
 34 33  0  0  0  0  0  0  0  0999 V2000 
    0.2638    0.8064   -1.4089 C   0  0  0  0  0  0  0  0  0  0  0  0 
    4.2797    2.3471   -5.4126 C   0  0  0  0  0  0  0  0  0  0  0  0 
    2.5427    1.5696    0.6173 C   0  0  0  0  0  0  0  0  0  0  0  0 
    4.1804    0.7283   -1.1030 C   0  0  0  0  0  0  0  0  0  0  0  0 
    2.2013    4.8037   -3.1464 C   0  0  0  0  0  0  0  0  0  0  0  0 
    4.6026    4.0710   -2.8429 C   0  0  0  0  0  0  0  0  0  0  0  0 
    1.7063    0.2932   -1.4353 C   0  0  0  0  0  0  0  0  0  0  0  0 
    3.3017    3.4358   -4.9563 C   0  0  0  0  0  0  0  0  0  0  0  0 
    2.7638    1.2698   -0.8721 C   0  0  0  0  0  0  0  0  0  0  0  0 
    3.2349    3.7061   -3.4355 C   0  0  0  0  0  0  0  0  0  0  0  0 
    2.6182    2.5809   -1.4584 O   0  0  0  0  0  0  0  0  0  0  0  0 
    2.7669    2.4425   -2.9166 O   0  0  0  0  0  0  0  0  0  0  0  0 
   -0.4094    0.0731   -1.8673 H   0  0  0  0  0  0  0  0  0  0  0  0 
    0.1789    1.7427   -1.9677 H   0  0  0  0  0  0  0  0  0  0  0  0 
   -0.0935    0.9865   -0.3889 H   0  0  0  0  0  0  0  0  0  0  0  0 
    4.2079    2.2066   -6.4970 H   0  0  0  0  0  0  0  0  0  0  0  0 
    4.0564    1.3891   -4.9337 H   0  0  0  0  0  0  0  0  0  0  0  0 
    5.3193    2.6056   -5.1846 H   0  0  0  0  0  0  0  0  0  0  0  0 
    2.6085    0.6418    1.1960 H   0  0  0  0  0  0  0  0  0  0  0  0 
    1.5620    2.0196    0.7937 H   0  0  0  0  0  0  0  0  0  0  0  0 
    3.3077    2.2602    0.9866 H   0  0  0  0  0  0  0  0  0  0  0  0 
    4.3055   -0.2388   -0.6027 H   0  0  0  0  0  0  0  0  0  0  0  0 
    4.9255    1.4220   -0.6992 H   0  0  0  0  0  0  0  0  0  0  0  0 
    4.3754    0.5923   -2.1696 H   0  0  0  0  0  0  0  0  0  0  0  0 
    2.5220    5.7573   -3.5809 H   0  0  0  0  0  0  0  0  0  0  0  0 
    2.0749    4.9406   -2.0695 H   0  0  0  0  0  0  0  0  0  0  0  0 
    1.2305    4.5359   -3.5770 H   0  0  0  0  0  0  0  0  0  0  0  0 
    5.0012    4.9662   -3.3339 H   0  0  0  0  0  0  0  0  0  0  0  0 
    5.3209    3.2567   -2.9732 H   0  0  0  0  0  0  0  0  0  0  0  0 
    4.5115    4.2766   -1.7736 H   0  0  0  0  0  0  0  0  0  0  0  0 
    1.9826    0.0530   -2.4679 H   0  0  0  0  0  0  0  0  0  0  0  0 
    1.7843   -0.6442   -0.8674 H   0  0  0  0  0  0  0  0  0  0  0  0 
    2.2896    3.1756   -5.2906 H   0  0  0  0  0  0  0  0  0  0  0  0 
    3.5526    4.3881   -5.4420 H   0  0  0  0  0  0  0  0  0  0  0  0 
  1 15  1  0  0  0  0 
  2 18  1  0  0  0  0 
  2  8  1  0  0  0  0 
  2 17  1  0  0  0  0 
  3 20  1  0  0  0  0 
  3 21  1  0  0  0  0 
  3 19  1  0  0  0  0 
  4  9  1  0  0  0  0 
  4 23  1  0  0  0  0 
  4 22  1  0  0  0  0 
  5 26  1  0  0  0  0 
  6 30  1  0  0  0  0 
  7  1  1  0  0  0  0 
  7  9  1  0  0  0  0 
  7 32  1  0  0  0  0 
  8 10  1  0  0  0  0 
  9  3  1  0  0  0  0 
 10  5  1  0  0  0  0 
 10 12  1  0  0  0  0 
 10  6  1  0  0  0  0 
 11  9  1  0  0  0  0 
 12 11  1  0  0  0  0 
 13  1  1  0  0  0  0 
 14  1  1  0  0  0  0 
 16  2  1  0  0  0  0 
 24  4  1  0  0  0  0 
 25  5  1  0  0  0  0 
 27  5  1  0  0  0  0 
 28  6  1  0  0  0  0 
 29  6  1  0  0  0  0 
 31  7  1  0  0  0  0 
 33  8  1  0  0  0  0 
 34  8  1  0  0  0  0 
M  END 
>  <HBA> 
2 
 
>  <HBD> 
0 
 
>  <TPSA> 
18.46 
 
>  <cid> 
25320 
 
>  <dipole> 
0.6 
 
>  <excitation_energy_1> 
4.926 
 
>  <excitation_energy_2> 
5.812 
 
>  <excitation_energy_3> 
6.16 
 
>  <excitation_energy_4> 
6.226 
 
>  <homo_energy> 
-6.112 
 
>  <homo_lumo_gap> 
6.914 
 
>  <logP> 
3.312 
 
>  <lumo_energy> 
0.803 
 
>  <melting_point> 
-20.38 
 
>  <molecular_refractivity> 
52.43 
 
>  <oscillator_strength_1> 
0.0001 
 
>  <oscillator_strength_2> 
0.0003 
 
>  <oscillator_strength_3> 
0.0066 
 
>  <oscillator_strength_4> 
0.0014 
 
>  <open_babel_can_smiles> 
CCC(OOC(CC)(C)C)(C)C 
 
>  <mulliken_charges> 
34 
1   -0.452045 
2   -0.454297 
3   -0.469942 
4   -0.4581 
5   -0.454914 
6   -0.461093 
7   -0.260131 
8   -0.271903 
9   0.336436 
10   0.338522 
11   -0.317337 
12   -0.321331 
13   0.137322 
14   0.167446 
15   0.138059 
16   0.141809 
17   0.162753 
18   0.144736 
19   0.147559 
20   0.161063 
21   0.152711 
22   0.136937 
23   0.144259 
24   0.162559 
25   0.135418 
26   0.165208 
27   0.14644 
28   0.136175 
29   0.151773 
30   0.159957 
31   0.148578 
32   0.124989 
33   0.14424 
34   0.136142 
 
>  <lowdin_charges> 
34 
1   -0.44795 
2   -0.445566 
3   -0.448107 
4   -0.45494 
5   -0.452588 
6   -0.457483 
7   -0.285101 
8   -0.276043 
9   0.122132 
10   0.12254 
11   -0.165574 
12   -0.168104 
13   0.149955 
14   0.159426 
15   0.143529 
16   0.149065 
17   0.15532 
18   0.146823 
19   0.15675 
20   0.158784 
21   0.157256 
22   0.150571 
23   0.153185 
24   0.157489 
25   0.149594 
26   0.160488 
27   0.152914 
28   0.151133 
29   0.155549 
30   0.158297 
31   0.151063 
32   0.142279 
33   0.149204 
34   0.148114 
 
$$$$ 
 
