PCCDB-ID:  7942 
public computational chemistry database (PCCDB) project, http://pccdb.org 
 
 24 24  0  0  0  0  0  0  0  0999 V2000 
    1.7267    2.7504    2.3357 C   0  0  0  0  0  0  0  0  0  0  0  0 
    6.6300   -4.2598    0.4006 C   0  0  0  0  0  0  0  0  0  0  0  0 
    7.1746    1.6681    0.6584 C   0  0  0  0  0  0  0  0  0  0  0  0 
    5.8929    2.1401    0.9430 C   0  0  0  0  0  0  0  0  0  0  0  0 
    7.4400    0.3011    0.5977 C   0  0  0  0  0  0  0  0  0  0  0  0 
    5.1151   -0.1632    1.1256 C   0  0  0  0  0  0  0  0  0  0  0  0 
    3.2259    2.5734    2.2757 C   0  0  0  0  0  0  0  0  0  0  0  0 
    5.9636   -2.9127    0.2625 C   0  0  0  0  0  0  0  0  0  0  0  0 
    4.8805    1.2097    1.1761 C   0  0  0  0  0  0  0  0  0  0  0  0 
    6.4037   -0.6027    0.8276 C   0  0  0  0  0  0  0  0  0  0  0  0 
    4.0265    3.2085    2.9162 O   0  0  0  0  0  0  0  0  0  0  0  0 
    4.8959   -2.6998   -0.2552 O   0  0  0  0  0  0  0  0  0  0  0  0 
    3.5507    1.5757    1.3935 O   0  0  0  0  0  0  0  0  0  0  0  0 
    6.7650   -1.9500    0.8219 O   0  0  0  0  0  0  0  0  0  0  0  0 
    1.4863    3.8029    2.1583 H   0  0  0  0  0  0  0  0  0  0  0  0 
    1.3841    2.5039    3.3461 H   0  0  0  0  0  0  0  0  0  0  0  0 
    1.2095    2.1209    1.6107 H   0  0  0  0  0  0  0  0  0  0  0  0 
    5.9988   -5.0229   -0.0555 H   0  0  0  0  0  0  0  0  0  0  0  0 
    6.7909   -4.4916    1.4586 H   0  0  0  0  0  0  0  0  0  0  0  0 
    7.6118   -4.2471   -0.0836 H   0  0  0  0  0  0  0  0  0  0  0  0 
    7.9769    2.3780    0.4803 H   0  0  0  0  0  0  0  0  0  0  0  0 
    5.6874    3.2010    0.9928 H   0  0  0  0  0  0  0  0  0  0  0  0 
    8.4335   -0.0756    0.3789 H   0  0  0  0  0  0  0  0  0  0  0  0 
    4.3019   -0.8548    1.2952 H   0  0  0  0  0  0  0  0  0  0  0  0 
  1 16  1  0  0  0  0 
  2 19  1  0  0  0  0 
  3  4  1  0  0  0  0 
  4 22  1  0  0  0  0 
  4  9  2  0  0  0  0 
  5  3  2  0  0  0  0 
  5 10  1  0  0  0  0 
  6  9  1  0  0  0  0 
  6 24  1  0  0  0  0 
  7  1  1  0  0  0  0 
  7 11  2  0  0  0  0 
  8  2  1  0  0  0  0 
  8 14  1  0  0  0  0 
  9 13  1  0  0  0  0 
 10  6  2  0  0  0  0 
 12  8  2  0  0  0  0 
 13  7  1  0  0  0  0 
 14 10  1  0  0  0  0 
 15  1  1  0  0  0  0 
 17  1  1  0  0  0  0 
 18  2  1  0  0  0  0 
 20  2  1  0  0  0  0 
 21  3  1  0  0  0  0 
 23  5  1  0  0  0  0 
M  END 
>  <HBA> 
4 
 
>  <HBD> 
0 
 
>  <TPSA> 
52.6 
 
>  <cid> 
7942 
 
>  <dipole> 
1.18 
 
>  <excitation_energy_1> 
5.06 
 
>  <excitation_energy_2> 
5.387 
 
>  <excitation_energy_3> 
5.536 
 
>  <excitation_energy_4> 
5.593 
 
>  <homo_energy> 
-6.531 
 
>  <homo_lumo_gap> 
6.057 
 
>  <logP> 
1.537 
 
>  <lumo_energy> 
-0.473 
 
>  <melting_point> 
55.98 
 
>  <molecular_refractivity> 
49.44 
 
>  <oscillator_strength_1> 
0.0059 
 
>  <oscillator_strength_2> 
0.066 
 
>  <oscillator_strength_3> 
0.03 
 
>  <oscillator_strength_4> 
0.0455 
 
>  <open_babel_can_smiles> 
CC(=O)Oc1cccc(c1)OC(=O)C 
 
>  <mulliken_charges> 
24 
1   -0.535716 
2   -0.525406 
3   -0.152996 
4   -0.13316 
5   -0.159373 
6   -0.186407 
7   0.599297 
8   0.593192 
9   0.33708 
10   0.34483 
11   -0.444085 
12   -0.44234 
13   -0.514983 
14   -0.515243 
15   0.189353 
16   0.191416 
17   0.183701 
18   0.186314 
19   0.187195 
20   0.186226 
21   0.142348 
22   0.157608 
23   0.14203 
24   0.169117 
 
>  <lowdin_charges> 
24 
1   -0.465074 
2   -0.461975 
3   -0.143605 
4   -0.171671 
5   -0.17764 
6   -0.185892 
7   0.213217 
8   0.208976 
9   0.109023 
10   0.109216 
11   -0.246183 
12   -0.23762 
13   -0.161812 
14   -0.165055 
15   0.180654 
16   0.183221 
17   0.17602 
18   0.178936 
19   0.179764 
20   0.180039 
21   0.1659 
22   0.175713 
23   0.168807 
24   0.187043 
 
$$$$ 
 
