PCCDB-ID:  12586 
public computational chemistry database (PCCDB) project, http://pccdb.org 
 
 11 11  0  0  0  0  0  0  0  0999 V2000 
   -0.7961   -0.9744   -0.2182 C   0  0  0  0  0  0  0  0  0  0  0  0 
    0.7452   -0.9916   -0.0112 C   0  0  0  0  0  0  0  0  0  0  0  0 
    0.0237    1.1248   -0.2714 C   0  0  0  0  0  0  0  0  0  0  0  0 
   -1.1595    0.3941   -0.0440 O   0  0  0  0  0  0  0  0  0  0  0  0 
    1.0760    0.3655    0.2768 O   0  0  0  0  0  0  0  0  0  0  0  0 
   -1.3429   -1.5658    0.5214 H   0  0  0  0  0  0  0  0  0  0  0  0 
   -1.0673   -1.3264   -1.2237 H   0  0  0  0  0  0  0  0  0  0  0  0 
    1.2650   -1.3375   -0.9162 H   0  0  0  0  0  0  0  0  0  0  0  0 
    1.0664   -1.6044    0.8355 H   0  0  0  0  0  0  0  0  0  0  0  0 
   -0.0386    2.0831    0.2499 H   0  0  0  0  0  0  0  0  0  0  0  0 
    0.1813    1.2847   -1.3553 H   0  0  0  0  0  0  0  0  0  0  0  0 
  1  4  1  0  0  0  0 
  1  2  1  0  0  0  0 
  1  6  1  0  0  0  0 
  2  5  1  0  0  0  0 
  2  9  1  0  0  0  0 
  3  4  1  0  0  0  0 
  3 10  1  0  0  0  0 
  3  5  1  0  0  0  0 
  7  1  1  0  0  0  0 
  8  2  1  0  0  0  0 
 11  3  1  0  0  0  0 
M  END 
>  <HBA> 
2 
 
>  <HBD> 
0 
 
>  <TPSA> 
18.46 
 
>  <cid> 
12586 
 
>  <dipole> 
1.52 
 
>  <excitation_energy_1> 
6.758 
 
>  <excitation_energy_2> 
6.91 
 
>  <excitation_energy_3> 
7.172 
 
>  <excitation_energy_4> 
7.316 
 
>  <homo_energy> 
-7.11 
 
>  <homo_lumo_gap> 
9.432 
 
>  <logP> 
-0.009 
 
>  <lumo_energy> 
2.321 
 
>  <melting_point> 
-19.89 
 
>  <molecular_refractivity> 
16.59 
 
>  <oscillator_strength_1> 
0.0277 
 
>  <oscillator_strength_2> 
0.0047 
 
>  <oscillator_strength_3> 
0.0089 
 
>  <oscillator_strength_4> 
0.0037 
 
>  <open_babel_can_smiles> 
C1OCCO1 
 
>  <mulliken_charges> 
11 
1   -0.055236 
2   -0.057199 
3   0.187968 
4   -0.469548 
5   -0.468484 
6   0.156712 
7   0.138203 
8   0.138153 
9   0.157233 
10   0.156742 
11   0.115456 
 
>  <lowdin_charges> 
11 
1   -0.14928 
2   -0.149986 
3   -0.013913 
4   -0.26841 
5   -0.267417 
6   0.15528 
7   0.136167 
8   0.136983 
9   0.155316 
10   0.153673 
11   0.111588 
 
$$$$ 
 
