PCCDB-ID:  12322 
public computational chemistry database (PCCDB) project, http://pccdb.org 
 
 22 21  0  0  0  0  0  0  0  0999 V2000 
    1.9781    1.4720   -0.8170 C   0  0  0  0  0  0  0  0  0  0  0  0 
    2.7795    1.1753    1.5203 C   0  0  0  0  0  0  0  0  0  0  0  0 
    5.6991   -2.4994   -1.6874 C   0  0  0  0  0  0  0  0  0  0  0  0 
    4.6504   -3.4118    0.3766 C   0  0  0  0  0  0  0  0  0  0  0  0 
    3.0107   -0.7116   -0.2201 C   0  0  0  0  0  0  0  0  0  0  0  0 
    4.5499   -0.8956   -0.1706 C   0  0  0  0  0  0  0  0  0  0  0  0 
    2.5570    0.6962    0.1057 C   0  0  0  0  0  0  0  0  0  0  0  0 
    5.0069   -2.2849   -0.5636 C   0  0  0  0  0  0  0  0  0  0  0  0 
    1.6494    2.4836   -0.5909 H   0  0  0  0  0  0  0  0  0  0  0  0 
    1.8114    1.1234   -1.8335 H   0  0  0  0  0  0  0  0  0  0  0  0 
    2.3911    2.1876    1.6679 H   0  0  0  0  0  0  0  0  0  0  0  0 
    3.8452    1.1832    1.7839 H   0  0  0  0  0  0  0  0  0  0  0  0 
    2.2843    0.5111    2.2424 H   0  0  0  0  0  0  0  0  0  0  0  0 
    6.0300   -3.4944   -1.9753 H   0  0  0  0  0  0  0  0  0  0  0  0 
    5.9620   -1.6871   -2.3610 H   0  0  0  0  0  0  0  0  0  0  0  0 
    5.0653   -4.3656    0.0368 H   0  0  0  0  0  0  0  0  0  0  0  0 
    3.5633   -3.5339    0.4710 H   0  0  0  0  0  0  0  0  0  0  0  0 
    5.0313   -3.2148    1.3884 H   0  0  0  0  0  0  0  0  0  0  0  0 
    2.5425   -1.4127    0.4863 H   0  0  0  0  0  0  0  0  0  0  0  0 
    2.6594   -0.9890   -1.2208 H   0  0  0  0  0  0  0  0  0  0  0  0 
    4.9056   -0.6756    0.8464 H   0  0  0  0  0  0  0  0  0  0  0  0 
    5.0102   -0.1544   -0.8344 H   0  0  0  0  0  0  0  0  0  0  0  0 
  1  9  1  0  0  0  0 
  1  7  2  0  0  0  0 
  2 11  1  0  0  0  0 
  2 12  1  0  0  0  0 
  2 13  1  0  0  0  0 
  3  8  2  0  0  0  0 
  4 17  1  0  0  0  0 
  4 18  1  0  0  0  0 
  5  6  1  0  0  0  0 
  5  7  1  0  0  0  0 
  5 19  1  0  0  0  0 
  6 21  1  0  0  0  0 
  7  2  1  0  0  0  0 
  8  6  1  0  0  0  0 
  8  4  1  0  0  0  0 
 10  1  1  0  0  0  0 
 14  3  1  0  0  0  0 
 15  3  1  0  0  0  0 
 16  4  1  0  0  0  0 
 20  5  1  0  0  0  0 
 22  6  1  0  0  0  0 
M  END 
>  <HBA> 
0 
 
>  <HBD> 
0 
 
>  <TPSA> 
0.0 
 
>  <cid> 
12322 
 
>  <dipole> 
0.71 
 
>  <excitation_energy_1> 
5.926 
 
>  <excitation_energy_2> 
5.976 
 
>  <excitation_energy_3> 
6.25 
 
>  <excitation_energy_4> 
6.291 
 
>  <homo_energy> 
-6.348 
 
>  <homo_lumo_gap> 
6.893 
 
>  <logP> 
2.919 
 
>  <lumo_energy> 
0.544 
 
>  <melting_point> 
-62.25 
 
>  <molecular_refractivity> 
39.62 
 
>  <oscillator_strength_1> 
0.0016 
 
>  <oscillator_strength_2> 
0.1431 
 
>  <oscillator_strength_3> 
0.0369 
 
>  <oscillator_strength_4> 
0.004 
 
>  <open_babel_can_smiles> 
CC(=C)CCC(=C)C 
 
>  <mulliken_charges> 
22 
1   -0.400477 
2   -0.514144 
3   -0.400091 
4   -0.513821 
5   -0.329339 
6   -0.329485 
7   0.2373 
8   0.236338 
9   0.12989 
10   0.131819 
11   0.153469 
12   0.157299 
13   0.151036 
14   0.129918 
15   0.131864 
16   0.153519 
17   0.157397 
18   0.150763 
19   0.13807 
20   0.145419 
21   0.137864 
22   0.145391 
 
>  <lowdin_charges> 
22 
1   -0.362535 
2   -0.441964 
3   -0.365345 
4   -0.439783 
5   -0.273079 
6   -0.272472 
7   0.009504 
8   0.008924 
9   0.151883 
10   0.152568 
11   0.156439 
12   0.154437 
13   0.155671 
14   0.152499 
15   0.154517 
16   0.157103 
17   0.154135 
18   0.153515 
19   0.146436 
20   0.150757 
21   0.144329 
22   0.15246 
 
$$$$ 
 
