PCCDB-ID:  34631 
public computational chemistry database (PCCDB) project, http://pccdb.org 
 
 26 26  0  0  1  0  0  0  0  0999 V2000 
    1.9255   -1.7378    0.6751 C   0  0  0  0  0  0  0  0  0  0  0  0 
    2.8334   -0.9335    1.2298 C   0  0  0  0  0  0  0  0  0  0  0  0 
    4.3545   -0.0676   -2.0785 C   0  0  0  0  0  0  0  0  0  0  0  0 
    4.0934    1.3876   -2.5099 C   0  0  0  0  0  0  0  0  0  0  0  0 
    3.1487    0.4657    0.7749 C   0  0  0  0  0  0  0  0  0  0  0  0 
    5.1308   -0.2110   -0.7598 C   0  0  0  0  0  0  0  0  0  0  0  0 
    5.2200    2.3703   -2.1505 C   0  0  0  0  0  0  0  0  0  0  0  0 
    4.6489    0.6628    0.4114 C   0  0  1  0  0  0  0  0  0  0  0  0 
    4.9871    2.1500    0.2426 C   0  0  0  0  0  0  0  0  0  0  0  0 
    5.2576    2.8472   -0.7761 N   0  0  0  0  0  0  0  0  0  0  0  0 
    4.9926    2.8367    1.4380 O   0  0  0  0  0  0  0  0  0  0  0  0 
    1.7366   -2.7376    1.0563 H   0  0  0  0  0  0  0  0  0  0  0  0 
    1.3277   -1.4222   -0.1777 H   0  0  0  0  0  0  0  0  0  0  0  0 
    3.4076   -1.2951    2.0857 H   0  0  0  0  0  0  0  0  0  0  0  0 
    4.9342   -0.5801   -2.8575 H   0  0  0  0  0  0  0  0  0  0  0  0 
    3.4010   -0.6063   -2.0116 H   0  0  0  0  0  0  0  0  0  0  0  0 
    3.1698    1.7662   -2.0526 H   0  0  0  0  0  0  0  0  0  0  0  0 
    3.9264    1.4166   -3.5945 H   0  0  0  0  0  0  0  0  0  0  0  0 
    2.8932    1.1744    1.5765 H   0  0  0  0  0  0  0  0  0  0  0  0 
    2.5179    0.7326   -0.0797 H   0  0  0  0  0  0  0  0  0  0  0  0 
    6.1894    0.0202   -0.9324 H   0  0  0  0  0  0  0  0  0  0  0  0 
    5.0963   -1.2604   -0.4434 H   0  0  0  0  0  0  0  0  0  0  0  0 
    5.1143    3.2636   -2.7779 H   0  0  0  0  0  0  0  0  0  0  0  0 
    6.1989    1.9410   -2.4159 H   0  0  0  0  0  0  0  0  0  0  0  0 
    5.2284    0.3343    1.2915 H   0  0  0  0  0  0  0  0  0  0  0  0 
    4.8989    2.2061    2.1679 H   0  0  0  0  0  0  0  0  0  0  0  0 
  1 12  1  0  0  0  0 
  1  2  2  0  0  0  0 
  2 14  1  0  0  0  0 
  3 16  1  0  0  0  0 
  3  6  1  0  0  0  0 
  4  7  1  0  0  0  0 
  4  3  1  0  0  0  0 
  4 17  1  0  0  0  0 
  5  2  1  0  0  0  0 
  5 19  1  0  0  0  0 
  6 22  1  0  0  0  0 
  6  8  1  0  0  0  0 
  7 10  1  0  0  0  0 
  8  5  1  0  0  0  0 
  8 25  1  1  0  0  0 
  9  8  1  0  0  0  0 
  9 11  1  0  0  0  0 
 10  9  2  0  0  0  0 
 11 26  1  0  0  0  0 
 13  1  1  0  0  0  0 
 15  3  1  0  0  0  0 
 18  4  1  0  0  0  0 
 20  5  1  0  0  0  0 
 21  6  1  0  0  0  0 
 23  7  1  0  0  0  0 
 24  7  1  0  0  0  0 
M  END 
>  <HBA> 
2 
 
>  <HBD> 
1 
 
>  <TPSA> 
29.1 
 
>  <cid> 
34631 
 
>  <dipole> 
3.58 
 
>  <excitation_energy_1> 
5.256 
 
>  <excitation_energy_2> 
5.487 
 
>  <excitation_energy_3> 
5.742 
 
>  <excitation_energy_4> 
5.818 
 
>  <homo_energy> 
-6.188 
 
>  <homo_lumo_gap> 
6.411 
 
>  <logP> 
1.808 
 
>  <lumo_energy> 
0.223 
 
>  <melting_point> 
21.99 
 
>  <molecular_refractivity> 
49.71 
 
>  <oscillator_strength_1> 
0.0063 
 
>  <oscillator_strength_2> 
0.0148 
 
>  <oscillator_strength_3> 
0.0127 
 
>  <oscillator_strength_4> 
0.0042 
 
>  <open_babel_can_smiles> 
C=CC[C@H]1CCCCN=C1O 
 
>  <mulliken_charges> 
26 
1   -0.340539 
2   -0.04084 
3   -0.264992 
4   -0.282585 
5   -0.308256 
6   -0.269804 
7   -0.147478 
8   -0.195603 
9   0.489874 
10   -0.422552 
11   -0.588175 
12   0.143868 
13   0.140974 
14   0.124292 
15   0.136284 
16   0.138518 
17   0.143506 
18   0.134795 
19   0.14618 
20   0.15883 
21   0.145843 
22   0.143974 
23   0.147536 
24   0.139491 
25   0.127517 
26   0.399344 
 
>  <lowdin_charges> 
26 
1   -0.337339 
2   -0.148695 
3   -0.284207 
4   -0.293545 
5   -0.276576 
6   -0.277744 
7   -0.201108 
8   -0.160577 
9   0.124049 
10   -0.207808 
11   -0.378881 
12   0.160211 
13   0.156806 
14   0.148858 
15   0.147583 
16   0.144733 
17   0.143646 
18   0.146268 
19   0.153038 
20   0.157225 
21   0.147695 
22   0.152214 
23   0.149757 
24   0.141758 
25   0.144304 
26   0.348337 
 
$$$$ 
 
