PCCDB-ID:  7292 
public computational chemistry database (PCCDB) project, http://pccdb.org 
 
 15 14  0  0  0  0  0  0  0  0999 V2000 
    2.1323    0.6890    1.3024 C   0  0  0  0  0  0  0  0  0  0  0  0 
    2.2143   -2.5028    0.7892 C   0  0  0  0  0  0  0  0  0  0  0  0 
    2.6979   -0.0357    0.0686 C   0  0  0  0  0  0  0  0  0  0  0  0 
    3.1886   -1.4305    0.3729 C   0  0  0  0  0  0  0  0  0  0  0  0 
    4.4520   -1.6215    0.2601 N   0  0  0  0  0  0  0  0  0  0  0  0 
    4.7982   -2.9557    0.5839 O   0  0  0  0  0  0  0  0  0  0  0  0 
    1.7696    1.6861    1.0294 H   0  0  0  0  0  0  0  0  0  0  0  0 
    2.9037    0.8062    2.0712 H   0  0  0  0  0  0  0  0  0  0  0  0 
    1.2939    0.1410    1.7475 H   0  0  0  0  0  0  0  0  0  0  0  0 
    1.1821   -2.1458    0.7429 H   0  0  0  0  0  0  0  0  0  0  0  0 
    2.4250   -2.8434    1.8098 H   0  0  0  0  0  0  0  0  0  0  0  0 
    2.3196   -3.3808    0.1423 H   0  0  0  0  0  0  0  0  0  0  0  0 
    3.5293    0.5381   -0.3530 H   0  0  0  0  0  0  0  0  0  0  0  0 
    1.9173   -0.0963   -0.7038 H   0  0  0  0  0  0  0  0  0  0  0  0 
    5.7570   -2.9512    0.4401 H   0  0  0  0  0  0  0  0  0  0  0  0 
  1  9  1  0  0  0  0 
  1  8  1  0  0  0  0 
  2 11  1  0  0  0  0 
  3  4  1  0  0  0  0 
  3  1  1  0  0  0  0 
  4  2  1  0  0  0  0 
  5  4  2  0  0  0  0 
  5  6  1  0  0  0  0 
  7  1  1  0  0  0  0 
 10  2  1  0  0  0  0 
 12  2  1  0  0  0  0 
 13  3  1  0  0  0  0 
 14  3  1  0  0  0  0 
 15  6  1  0  0  0  0 
M  END 
>  <HBA> 
2 
 
>  <HBD> 
1 
 
>  <TPSA> 
32.59 
 
>  <cid> 
7292 
 
>  <dipole> 
0.66 
 
>  <excitation_energy_1> 
6.11 
 
>  <excitation_energy_2> 
6.142 
 
>  <excitation_energy_3> 
6.49 
 
>  <excitation_energy_4> 
6.818 
 
>  <homo_energy> 
-6.509 
 
>  <homo_lumo_gap> 
6.939 
 
>  <logP> 
1.246 
 
>  <lumo_energy> 
0.43 
 
>  <melting_point> 
46.54 
 
>  <molecular_refractivity> 
25.76 
 
>  <oscillator_strength_1> 
0.0112 
 
>  <oscillator_strength_2> 
0.0065 
 
>  <oscillator_strength_3> 
0.131 
 
>  <oscillator_strength_4> 
0.0883 
 
>  <open_babel_can_smiles> 
C/C(=N\O)/CC 
 
>  <mulliken_charges> 
15 
1   -0.449061 
2   -0.503759 
3   -0.315407 
4   0.329727 
5   -0.226031 
6   -0.520034 
7   0.149939 
8   0.158051 
9   0.147623 
10   0.149341 
11   0.179409 
12   0.181387 
13   0.16149 
14   0.143701 
15   0.413623 
 
>  <lowdin_charges> 
15 
1   -0.444522 
2   -0.45709 
3   -0.273809 
4   0.024287 
5   -0.082913 
6   -0.390192 
7   0.153038 
8   0.155091 
9   0.149641 
10   0.155655 
11   0.172972 
12   0.175389 
13   0.161643 
14   0.150236 
15   0.350573 
 
$$$$ 
 
