PCCDB-ID:  71407 
public computational chemistry database (PCCDB) project, http://pccdb.org 
 
 25 25  0  0  0  0  0  0  0  0999 V2000 
    1.1534    0.1332   -0.1097 C   0  0  0  0  0  0  0  0  0  0  0  0 
    3.2632    2.3392   -0.0295 C   0  0  0  0  0  0  0  0  0  0  0  0 
    3.2609    2.9263    1.3817 C   0  0  0  0  0  0  0  0  0  0  0  0 
    4.5254   -1.0982    0.0291 C   0  0  0  0  0  0  0  0  0  0  0  0 
    2.6276   -0.0997   -0.0422 C   0  0  0  0  0  0  0  0  0  0  0  0 
    4.7901    0.2557    0.0358 C   0  0  0  0  0  0  0  0  0  0  0  0 
    2.7927    5.0208    2.3428 C   0  0  0  0  0  0  0  0  0  0  0  0 
    3.0404    4.5370    3.4923 N   0  0  0  0  0  0  0  0  0  0  0  0 
    3.1860   -1.3081   -0.0171 N   0  0  0  0  0  0  0  0  0  0  0  0 
    3.5581    0.9035   -0.0138 N   0  0  0  0  0  0  0  0  0  0  0  0 
    6.0590    0.8900    0.0827 N   0  0  0  0  0  0  0  0  0  0  0  0 
    2.4300    6.2769    1.9774 O   0  0  0  0  0  0  0  0  0  0  0  0 
    7.0471    0.1523    0.0696 O   0  0  0  0  0  0  0  0  0  0  0  0 
    6.1072    2.1290    0.1366 O   0  0  0  0  0  0  0  0  0  0  0  0 
    2.8538    4.2897    1.2194 O   0  0  0  0  0  0  0  0  0  0  0  0 
    0.6598   -0.8394   -0.0748 H   0  0  0  0  0  0  0  0  0  0  0  0 
    0.8596    0.6364   -1.0391 H   0  0  0  0  0  0  0  0  0  0  0  0 
    0.7902    0.7400    0.7277 H   0  0  0  0  0  0  0  0  0  0  0  0 
    4.0046    2.8462   -0.6443 H   0  0  0  0  0  0  0  0  0  0  0  0 
    2.2798    2.4688   -0.4860 H   0  0  0  0  0  0  0  0  0  0  0  0 
    4.2555    2.8808    1.8309 H   0  0  0  0  0  0  0  0  0  0  0  0 
    2.5582    2.4029    2.0388 H   0  0  0  0  0  0  0  0  0  0  0  0 
    5.2465   -1.9019    0.0606 H   0  0  0  0  0  0  0  0  0  0  0  0 
    2.9531    5.2259    4.2383 H   0  0  0  0  0  0  0  0  0  0  0  0 
    2.3752    6.8246    2.7754 H   0  0  0  0  0  0  0  0  0  0  0  0 
  1 16  1  0  0  0  0 
  1  5  1  0  0  0  0 
  1 18  1  0  0  0  0 
  2 10  1  0  0  0  0 
  2  3  1  0  0  0  0 
  3 21  1  0  0  0  0 
  3 22  1  0  0  0  0 
  4  6  2  0  0  0  0 
  4 23  1  0  0  0  0 
  5  9  2  0  0  0  0 
  5 10  1  0  0  0  0 
  6 11  1  0  0  0  0 
  7  8  2  0  0  0  0 
  8 24  1  0  0  0  0 
  9  4  1  0  0  0  0 
 10  6  1  0  0  0  0 
 11 14  2  0  0  0  0 
 12  7  1  0  0  0  0 
 12 25  1  0  0  0  0 
 13 11  2  0  0  0  0 
 15  3  1  0  0  0  0 
 15  7  1  0  0  0  0 
 17  1  1  0  0  0  0 
 19  2  1  0  0  0  0 
 20  2  1  0  0  0  0 
M  END 
>  <HBA> 
5 
 
>  <HBD> 
1 
 
>  <TPSA> 
115.96 
 
>  <cid> 
71407 
 
>  <dipole> 
5.37 
 
>  <excitation_energy_1> 
3.807 
 
>  <excitation_energy_2> 
4.206 
 
>  <excitation_energy_3> 
4.25 
 
>  <excitation_energy_4> 
4.589 
 
>  <homo_energy> 
-6.988 
 
>  <homo_lumo_gap> 
4.637 
 
>  <logP> 
1.419 
 
>  <lumo_energy> 
-2.351 
 
>  <melting_point> 
141.32 
 
>  <molecular_refractivity> 
51.27 
 
>  <oscillator_strength_1> 
0.0007 
 
>  <oscillator_strength_2> 
0.2161 
 
>  <oscillator_strength_3> 
0.0151 
 
>  <oscillator_strength_4> 
0.0003 
 
>  <open_babel_can_smiles> 
OC(=N)OCCn1c(C)ncc1N(=O)=O 
 
>  <mulliken_charges> 
25 
1   -0.540129 
2   -0.182089 
3   -0.017921 
4   0.010236 
5   0.487855 
6   0.487863 
7   0.6503 
8   -0.623676 
9   -0.464267 
10   -0.484766 
11   0.335551 
12   -0.567087 
13   -0.399192 
14   -0.427531 
15   -0.452751 
16   0.204024 
17   0.180516 
18   0.178886 
19   0.213505 
20   0.177142 
21   0.192945 
22   0.164386 
23   0.181316 
24   0.28247 
25   0.412415 
 
>  <lowdin_charges> 
25 
1   -0.450265 
2   -0.203716 
3   -0.125796 
4   -0.102291 
5   0.078201 
6   -0.013075 
7   0.189264 
8   -0.463106 
9   -0.181827 
10   -0.001388 
11   0.308565 
12   -0.360432 
13   -0.249538 
14   -0.271144 
15   -0.17946 
16   0.189666 
17   0.17209 
18   0.171655 
19   0.186621 
20   0.167306 
21   0.169021 
22   0.155704 
23   0.187814 
24   0.261439 
25   0.364693 
 
$$$$ 
 
