PCCDB-ID:  6375 
public computational chemistry database (PCCDB) project, http://pccdb.org 
 
  7  6  0  0  0  0  0  0  0  0999 V2000 
    1.0444    0.0156    0.0906 C   0  0  0  0  0  0  0  0  0  0  0  0 
    2.5437    0.0145    0.0886 N   0  0  0  0  0  0  0  0  0  0  0  0 
    3.1117   -0.5262   -0.8545 O   0  0  0  0  0  0  0  0  0  0  0  0 
    3.0907    0.5608    1.0414 O   0  0  0  0  0  0  0  0  0  0  0  0 
    0.6979   -0.4972   -0.8038 H   0  0  0  0  0  0  0  0  0  0  0  0 
    0.7221    1.0576    0.1156 H   0  0  0  0  0  0  0  0  0  0  0  0 
    0.7220   -0.4890    1.0025 H   0  0  0  0  0  0  0  0  0  0  0  0 
  1  6  1  0  0  0  0 
  1  7  1  0  0  0  0 
  2  1  1  0  0  0  0 
  2  4  2  0  0  0  0 
  3  2  2  0  0  0  0 
  5  1  1  0  0  0  0 
M  END 
>  <HBA> 
0 
 
>  <HBD> 
0 
 
>  <TPSA> 
45.82 
 
>  <cid> 
6375 
 
>  <dipole> 
3.47 
 
>  <excitation_energy_1> 
4.098 
 
>  <excitation_energy_2> 
4.492 
 
>  <excitation_energy_3> 
6.857 
 
>  <excitation_energy_4> 
7.491 
 
>  <homo_energy> 
-8.027 
 
>  <homo_lumo_gap> 
6.128 
 
>  <logP> 
0.416 
 
>  <lumo_energy> 
-1.899 
 
>  <melting_point> 
7.51 
 
>  <molecular_refractivity> 
15.03 
 
>  <oscillator_strength_1> 
0.0 
 
>  <oscillator_strength_2> 
0.0 
 
>  <oscillator_strength_3> 
0.1669 
 
>  <oscillator_strength_4> 
0.0013 
 
>  <open_babel_can_smiles> 
CN(=O)=O 
 
>  <mulliken_charges> 
7 
1   -0.334084 
2   0.453709 
3   -0.369724 
4   -0.369236 
5   0.202628 
6   0.208355 
7   0.208354 
 
>  <lowdin_charges> 
7 
1   -0.374897 
2   0.301404 
3   -0.239977 
4   -0.247314 
5   0.18376 
6   0.187791 
7   0.189233 
 
$$$$ 
 
