PCCDB-ID:  25098 
public computational chemistry database (PCCDB) project, http://pccdb.org 
 
 19 19  0  0  1  0  0  0  0  0999 V2000 
   -1.1860    0.2361    0.4464 C   0  0  0  0  0  0  0  0  0  0  0  0 
   -0.1090    1.3218    0.6361 C   0  0  0  0  0  0  0  0  0  0  0  0 
   -1.1045   -1.8326   -1.1197 C   0  0  0  0  0  0  0  0  0  0  0  0 
   -0.3734   -0.9831   -0.0723 C   0  0  1  0  0  0  0  0  0  0  0  0 
    0.9944    0.7829   -0.2565 C   0  0  0  0  0  0  0  0  0  0  0  0 
   -0.3161   -3.0371   -1.6547 C   0  0  0  0  0  0  0  0  0  0  0  0 
    0.8706   -0.4250   -0.6393 N   0  0  0  0  0  0  0  0  0  0  0  0 
    2.0684    1.5172   -0.6014 O   0  0  0  0  0  0  0  0  0  0  0  0 
   -0.8429   -4.1020   -1.8809 O   0  0  0  0  0  0  0  0  0  0  0  0 
    0.9902   -2.8303   -1.8967 O   0  0  0  0  0  0  0  0  0  0  0  0 
   -1.9054    0.5526   -0.3173 H   0  0  0  0  0  0  0  0  0  0  0  0 
   -1.7442    0.0152    1.3598 H   0  0  0  0  0  0  0  0  0  0  0  0 
    0.2518    1.3852    1.6721 H   0  0  0  0  0  0  0  0  0  0  0  0 
   -0.4345    2.3271    0.3424 H   0  0  0  0  0  0  0  0  0  0  0  0 
   -1.3579   -1.1926   -1.9771 H   0  0  0  0  0  0  0  0  0  0  0  0 
   -2.0417   -2.2213   -0.7124 H   0  0  0  0  0  0  0  0  0  0  0  0 
   -0.0896   -1.6333    0.7685 H   0  0  0  0  0  0  0  0  0  0  0  0 
    1.9662    2.4183   -0.2582 H   0  0  0  0  0  0  0  0  0  0  0  0 
    1.2451   -1.9156   -1.6142 H   0  0  0  0  0  0  0  0  0  0  0  0 
  1  2  1  0  0  0  0 
  1 12  1  0  0  0  0 
  2 13  1  0  0  0  0 
  3 16  1  0  0  0  0 
  3  4  1  0  0  0  0 
  4  1  1  0  0  0  0 
  4 17  1  1  0  0  0 
  5  2  1  0  0  0  0 
  6  3  1  0  0  0  0 
  7  5  2  0  0  0  0 
  7  4  1  0  0  0  0 
  8 18  1  0  0  0  0 
  8  5  1  0  0  0  0 
  9  6  2  0  0  0  0 
 10  6  1  0  0  0  0 
 10 19  1  0  0  0  0 
 11  1  1  0  0  0  0 
 14  2  1  0  0  0  0 
 15  3  1  0  0  0  0 
M  END 
>  <HBA> 
4 
 
>  <HBD> 
2 
 
>  <TPSA> 
66.4 
 
>  <cid> 
25098 
 
>  <dipole> 
9.06 
 
>  <excitation_energy_1> 
5.561 
 
>  <excitation_energy_2> 
5.836 
 
>  <excitation_energy_3> 
5.954 
 
>  <excitation_energy_4> 
6.153 
 
>  <homo_energy> 
-6.645 
 
>  <homo_lumo_gap> 
6.523 
 
>  <logP> 
0.068 
 
>  <lumo_energy> 
-0.122 
 
>  <melting_point> 
121.74 
 
>  <molecular_refractivity> 
37.53 
 
>  <oscillator_strength_1> 
0.0012 
 
>  <oscillator_strength_2> 
0.0014 
 
>  <oscillator_strength_3> 
0.0024 
 
>  <oscillator_strength_4> 
0.0036 
 
>  <open_babel_can_smiles> 
OC(=O)C[C@@H]1CCC(=N1)O 
 
>  <mulliken_charges> 
19 
1   -0.293318 
2   -0.386332 
3   -0.376971 
4   0.018778 
5   0.515503 
6   0.588034 
7   -0.460532 
8   -0.572938 
9   -0.461694 
10   -0.588081 
11   0.15969 
12   0.159808 
13   0.180704 
14   0.163359 
15   0.167215 
16   0.174192 
17   0.158529 
18   0.421137 
19   0.432917 
 
>  <lowdin_charges> 
19 
1   -0.284419 
2   -0.312695 
3   -0.322026 
4   -0.063871 
5   0.130778 
6   0.186944 
7   -0.223933 
8   -0.332981 
9   -0.261999 
10   -0.369499 
11   0.156869 
12   0.160455 
13   0.167434 
14   0.159937 
15   0.166606 
16   0.172711 
17   0.150249 
18   0.367632 
19   0.351809 
 
$$$$ 
 
