PCCDB-ID:  27422 
public computational chemistry database (PCCDB) project, http://pccdb.org 
 
 13 13  0  0  0  0  0  0  0  0999 V2000 
    2.4391   -1.8439   -0.3977 C   0  0  0  0  0  0  0  0  0  0  0  0 
    4.2804   -0.2234    2.8962 C   0  0  0  0  0  0  0  0  0  0  0  0 
    3.1861    1.1740    1.7777 C   0  0  0  0  0  0  0  0  0  0  0  0 
    2.3659   -0.3960    0.0069 C   0  0  0  0  0  0  0  0  0  0  0  0 
    3.9310    1.1050    2.8554 N   0  0  0  0  0  0  0  0  0  0  0  0 
    3.8025   -0.9692    1.9215 N   0  0  0  0  0  0  0  0  0  0  0  0 
    3.0875   -0.0577    1.1896 N   0  0  0  0  0  0  0  0  0  0  0  0 
    1.7604    0.4737   -0.5772 O   0  0  0  0  0  0  0  0  0  0  0  0 
    3.4785   -2.1440   -0.5626 H   0  0  0  0  0  0  0  0  0  0  0  0 
    1.8561   -1.9743   -1.3099 H   0  0  0  0  0  0  0  0  0  0  0  0 
    2.0485   -2.4842    0.3993 H   0  0  0  0  0  0  0  0  0  0  0  0 
    4.9070   -0.6389    3.6739 H   0  0  0  0  0  0  0  0  0  0  0  0 
    2.6998    2.0481    1.3706 H   0  0  0  0  0  0  0  0  0  0  0  0 
  1  4  1  0  0  0  0 
  1 11  1  0  0  0  0 
  2 12  1  0  0  0  0 
  3  5  1  0  0  0  0 
  4  7  1  0  0  0  0 
  5  2  2  0  0  0  0 
  6  2  1  0  0  0  0 
  7  3  1  0  0  0  0 
  7  6  1  0  0  0  0 
  8  4  2  0  0  0  0 
  9  1  1  0  0  0  0 
 10  1  1  0  0  0  0 
 13  3  1  0  0  0  0 
M  RAD  1   6   2 
M  END 
>  <HBA> 
4 
 
>  <HBD> 
0 
 
>  <TPSA> 
47.78 
 
>  <cid> 
27422 
 
>  <dipole> 
1.78 
 
>  <excitation_energy_1> 
4.685 
 
>  <excitation_energy_2> 
5.168 
 
>  <excitation_energy_3> 
5.512 
 
>  <excitation_energy_4> 
6.17 
 
>  <homo_energy> 
-7.815 
 
>  <homo_lumo_gap> 
6.136 
 
>  <logP> 
-0.062 
 
>  <lumo_energy> 
-1.679 
 
>  <melting_point> 
57.22 
 
>  <molecular_refractivity> 
26.51 
 
>  <oscillator_strength_1> 
0.0011 
 
>  <oscillator_strength_2> 
0.0017 
 
>  <oscillator_strength_3> 
0.0841 
 
>  <oscillator_strength_4> 
0.1852 
 
>  <open_babel_can_smiles> 
CC(=O)N1CN=C[N]1 
 
>  <mulliken_charges> 
13 
1   -0.522995 
2   0.171952 
3   0.242338 
4   0.58135 
5   -0.428305 
6   -0.263062 
7   -0.313035 
8   -0.433183 
9   0.200047 
10   0.188788 
11   0.199946 
12   0.172123 
13   0.204037 
 
>  <lowdin_charges> 
13 
1   -0.464431 
2   -0.083681 
3   -0.051513 
4   0.200012 
5   -0.172691 
6   -0.146898 
7   0.01566 
8   -0.227599 
9   0.187964 
10   0.180526 
11   0.18989 
12   0.176963 
13   0.195797 
 
$$$$ 
 
