PCCDB-ID:  42265 
public computational chemistry database (PCCDB) project, http://pccdb.org 
 
 42 41  0  0  1  0  0  0  0  0999 V2000 
    2.2037    7.8397    1.3303 C   0  0  0  0  0  0  0  0  0  0  0  0 
   13.2431    4.8326   -0.0431 C   0  0  0  0  0  0  0  0  0  0  0  0 
    3.5203    7.0591    1.3993 C   0  0  0  0  0  0  0  0  0  0  0  0 
    3.7017    6.0724    0.2386 C   0  0  0  0  0  0  0  0  0  0  0  0 
    5.0171    5.2851    0.3026 C   0  0  0  0  0  0  0  0  0  0  0  0 
    5.1985    4.3106   -0.8699 C   0  0  0  0  0  0  0  0  0  0  0  0 
    6.4614    3.4363   -0.7933 C   0  0  0  0  0  0  0  0  0  0  0  0 
    7.7867    4.2058   -0.8895 C   0  0  0  0  0  0  0  0  0  0  0  0 
    9.0182    3.2903   -0.8924 C   0  0  0  0  0  0  0  0  0  0  0  0 
   10.3487    4.0512   -0.9755 C   0  0  0  0  0  0  0  0  0  0  0  0 
   11.5706    3.1226   -0.9730 C   0  0  0  0  0  0  0  0  0  0  0  0 
   14.0635    2.7912   -1.2973 C   0  0  0  0  0  0  0  0  0  0  0  0 
   12.9303    3.8234   -1.1602 C   0  0  2  0  0  0  0  0  0  0  0  0 
   14.2358    1.9662   -0.1475 O   0  0  0  0  0  0  0  0  0  0  0  0 
    2.1051    8.5355    2.1715 H   0  0  0  0  0  0  0  0  0  0  0  0 
    1.3402    7.1636    1.3545 H   0  0  0  0  0  0  0  0  0  0  0  0 
    2.1381    8.4248    0.4046 H   0  0  0  0  0  0  0  0  0  0  0  0 
   12.5144    5.6483   -0.0144 H   0  0  0  0  0  0  0  0  0  0  0  0 
   14.2339    5.2839   -0.1828 H   0  0  0  0  0  0  0  0  0  0  0  0 
   13.2251    4.3499    0.9433 H   0  0  0  0  0  0  0  0  0  0  0  0 
    3.5720    6.5115    2.3512 H   0  0  0  0  0  0  0  0  0  0  0  0 
    4.3637    7.7643    1.4089 H   0  0  0  0  0  0  0  0  0  0  0  0 
    3.6518    6.6212   -0.7140 H   0  0  0  0  0  0  0  0  0  0  0  0 
    2.8563    5.3681    0.2264 H   0  0  0  0  0  0  0  0  0  0  0  0 
    5.0570    4.7235    1.2484 H   0  0  0  0  0  0  0  0  0  0  0  0 
    5.8560    5.9940    0.3339 H   0  0  0  0  0  0  0  0  0  0  0  0 
    5.2057    4.8762   -1.8138 H   0  0  0  0  0  0  0  0  0  0  0  0 
    4.3190    3.6528   -0.9191 H   0  0  0  0  0  0  0  0  0  0  0  0 
    6.4252    2.6952   -1.6046 H   0  0  0  0  0  0  0  0  0  0  0  0 
    6.4456    2.8592    0.1435 H   0  0  0  0  0  0  0  0  0  0  0  0 
    7.8707    4.9133   -0.0530 H   0  0  0  0  0  0  0  0  0  0  0  0 
    7.7852    4.8159   -1.8056 H   0  0  0  0  0  0  0  0  0  0  0  0 
    8.9476    2.5880   -1.7363 H   0  0  0  0  0  0  0  0  0  0  0  0 
    9.0123    2.6709    0.0168 H   0  0  0  0  0  0  0  0  0  0  0  0 
   10.4067    4.7555   -0.1342 H   0  0  0  0  0  0  0  0  0  0  0  0 
   10.3577    4.6655   -1.8888 H   0  0  0  0  0  0  0  0  0  0  0  0 
   11.4516    2.3855   -1.7811 H   0  0  0  0  0  0  0  0  0  0  0  0 
   11.5976    2.5423   -0.0412 H   0  0  0  0  0  0  0  0  0  0  0  0 
   15.0047    3.3074   -1.5505 H   0  0  0  0  0  0  0  0  0  0  0  0 
   13.8393    2.0995   -2.1167 H   0  0  0  0  0  0  0  0  0  0  0  0 
   12.9052    4.3740   -2.1146 H   0  0  0  0  0  0  0  0  0  0  0  0 
   14.5657    2.5294    0.5690 H   0  0  0  0  0  0  0  0  0  0  0  0 
  1 16  1  0  0  0  0 
  1  3  1  0  0  0  0 
  1 15  1  0  0  0  0 
  2 18  1  0  0  0  0 
  2 20  1  0  0  0  0 
  3 22  1  0  0  0  0 
  3 21  1  0  0  0  0 
  4  5  1  0  0  0  0 
  4  3  1  0  0  0  0 
  5 26  1  0  0  0  0 
  5 25  1  0  0  0  0 
  6  7  1  0  0  0  0 
  6  5  1  0  0  0  0 
  7 30  1  0  0  0  0 
  8  7  1  0  0  0  0 
  8 31  1  0  0  0  0 
  9  8  1  0  0  0  0 
  9 34  1  0  0  0  0 
 10 11  1  0  0  0  0 
 10  9  1  0  0  0  0 
 10 35  1  0  0  0  0 
 11 38  1  0  0  0  0 
 12 13  1  0  0  0  0 
 12 14  1  0  0  0  0 
 13 41  1  6  0  0  0 
 13 11  1  0  0  0  0 
 13  2  1  0  0  0  0 
 14 42  1  0  0  0  0 
 17  1  1  0  0  0  0 
 19  2  1  0  0  0  0 
 23  4  1  0  0  0  0 
 24  4  1  0  0  0  0 
 27  6  1  0  0  0  0 
 28  6  1  0  0  0  0 
 29  7  1  0  0  0  0 
 32  8  1  0  0  0  0 
 33  9  1  0  0  0  0 
 36 10  1  0  0  0  0 
 37 11  1  0  0  0  0 
 39 12  1  0  0  0  0 
 40 12  1  0  0  0  0 
M  END 
>  <HBA> 
1 
 
>  <HBD> 
1 
 
>  <TPSA> 
20.23 
 
>  <cid> 
42265 
 
>  <dipole> 
1.58 
 
>  <excitation_energy_1> 
6.365 
 
>  <excitation_energy_2> 
6.955 
 
>  <excitation_energy_3> 
7.239 
 
>  <excitation_energy_4> 
7.309 
 
>  <homo_energy> 
-7.034 
 
>  <homo_lumo_gap> 
8.863 
 
>  <logP> 
4.146 
 
>  <lumo_energy> 
1.829 
 
>  <melting_point> 
-12.59 
 
>  <molecular_refractivity> 
65.77 
 
>  <oscillator_strength_1> 
0.0026 
 
>  <oscillator_strength_2> 
0.0246 
 
>  <oscillator_strength_3> 
0.0013 
 
>  <oscillator_strength_4> 
0.0085 
 
>  <open_babel_can_smiles> 
CCCCCCCCCC[C@H](CO)C 
 
>  <mulliken_charges> 
42 
1   -0.441138 
2   -0.469754 
3   -0.246715 
4   -0.245446 
5   -0.25352 
6   -0.254479 
7   -0.254273 
8   -0.253992 
9   -0.253005 
10   -0.259557 
11   -0.247134 
12   -0.039779 
13   -0.085933 
14   -0.61677 
15   0.140771 
16   0.14096 
17   0.140726 
18   0.156527 
19   0.138486 
20   0.135344 
21   0.129493 
22   0.12901 
23   0.125887 
24   0.125844 
25   0.125221 
26   0.131608 
27   0.125353 
28   0.126253 
29   0.126489 
30   0.126044 
31   0.131369 
32   0.124639 
33   0.127116 
34   0.128769 
35   0.129117 
36   0.123669 
37   0.124537 
38   0.141821 
39   0.115503 
40   0.142133 
41   0.117134 
42   0.391671 
 
>  <lowdin_charges> 
42 
1   -0.445446 
2   -0.454434 
3   -0.272559 
4   -0.274626 
5   -0.277271 
6   -0.275377 
7   -0.275537 
8   -0.277475 
9   -0.273924 
10   -0.277033 
11   -0.27693 
12   -0.137667 
13   -0.142195 
14   -0.47008 
15   0.14921 
16   0.146386 
17   0.145992 
18   0.156496 
19   0.146043 
20   0.141826 
21   0.138258 
22   0.138596 
23   0.136799 
24   0.137221 
25   0.136578 
26   0.139163 
27   0.13673 
28   0.140177 
29   0.140415 
30   0.137198 
31   0.138959 
32   0.136477 
33   0.137717 
34   0.138744 
35   0.138307 
36   0.135733 
37   0.140232 
38   0.14597 
39   0.124639 
40   0.146409 
41   0.13795 
42   0.342329 
 
$$$$ 
 
