PCCDB-ID:  69877 
public computational chemistry database (PCCDB) project, http://pccdb.org 
 
 30 30  0  0  0  0  0  0  0  0999 V2000 
    1.1889    0.6437    0.0147 C   0  0  0  0  0  0  0  0  0  0  0  0 
    7.7997    2.2942   -1.3906 C   0  0  0  0  0  0  0  0  0  0  0  0 
    8.0833    1.6291   -0.0355 C   0  0  0  0  0  0  0  0  0  0  0  0 
    7.7508    1.3896   -2.6306 C   0  0  0  0  0  0  0  0  0  0  0  0 
    7.0470    0.6133    0.4899 C   0  0  0  0  0  0  0  0  0  0  0  0 
    6.6407    0.3178   -2.6840 C   0  0  0  0  0  0  0  0  0  0  0  0 
    5.5642    1.0320    0.3534 C   0  0  0  0  0  0  0  0  0  0  0  0 
    5.2307    0.7930   -2.2612 C   0  0  0  0  0  0  0  0  0  0  0  0 
    2.5933    0.0823    0.0387 C   0  0  0  0  0  0  0  0  0  0  0  0 
    4.8133    0.4126   -0.8352 C   0  0  0  0  0  0  0  0  0  0  0  0 
    2.9402   -0.8993    0.6605 O   0  0  0  0  0  0  0  0  0  0  0  0 
    3.4138    0.8232   -0.7398 O   0  0  0  0  0  0  0  0  0  0  0  0 
    1.1963    1.6961    0.3156 H   0  0  0  0  0  0  0  0  0  0  0  0 
    0.5553    0.0666    0.6892 H   0  0  0  0  0  0  0  0  0  0  0  0 
    0.7845    0.5980   -1.0021 H   0  0  0  0  0  0  0  0  0  0  0  0 
    8.5814    3.0473   -1.5605 H   0  0  0  0  0  0  0  0  0  0  0  0 
    6.8639    2.8644   -1.3232 H   0  0  0  0  0  0  0  0  0  0  0  0 
    8.1741    2.4353    0.7063 H   0  0  0  0  0  0  0  0  0  0  0  0 
    9.0676    1.1406   -0.0673 H   0  0  0  0  0  0  0  0  0  0  0  0 
    8.7228    0.8923   -2.7586 H   0  0  0  0  0  0  0  0  0  0  0  0 
    7.6327    2.0448   -3.5053 H   0  0  0  0  0  0  0  0  0  0  0  0 
    7.2650    0.4467    1.5519 H   0  0  0  0  0  0  0  0  0  0  0  0 
    7.1957   -0.3637    0.0151 H   0  0  0  0  0  0  0  0  0  0  0  0 
    6.9275   -0.5553   -2.0863 H   0  0  0  0  0  0  0  0  0  0  0  0 
    6.5912   -0.0478   -3.7170 H   0  0  0  0  0  0  0  0  0  0  0  0 
    5.4683    2.1249    0.3129 H   0  0  0  0  0  0  0  0  0  0  0  0 
    5.0229    0.7062    1.2476 H   0  0  0  0  0  0  0  0  0  0  0  0 
    4.4833    0.3393   -2.9225 H   0  0  0  0  0  0  0  0  0  0  0  0 
    5.1285    1.8777   -2.3952 H   0  0  0  0  0  0  0  0  0  0  0  0 
    4.8414   -0.6772   -0.7290 H   0  0  0  0  0  0  0  0  0  0  0  0 
  1  9  1  0  0  0  0 
  1 13  1  0  0  0  0 
  1 14  1  0  0  0  0 
  2 17  1  0  0  0  0 
  2  3  1  0  0  0  0 
  3  5  1  0  0  0  0 
  3 18  1  0  0  0  0 
  4  2  1  0  0  0  0 
  5 22  1  0  0  0  0 
  6  4  1  0  0  0  0 
  6  8  1  0  0  0  0 
  6 24  1  0  0  0  0 
  7  5  1  0  0  0  0 
  7 27  1  0  0  0  0 
  8 10  1  0  0  0  0 
  9 11  2  0  0  0  0 
 10 12  1  0  0  0  0 
 10 30  1  0  0  0  0 
 10  7  1  0  0  0  0 
 12  9  1  0  0  0  0 
 15  1  1  0  0  0  0 
 16  2  1  0  0  0  0 
 19  3  1  0  0  0  0 
 20  4  1  0  0  0  0 
 21  4  1  0  0  0  0 
 23  5  1  0  0  0  0 
 25  6  1  0  0  0  0 
 26  7  1  0  0  0  0 
 28  8  1  0  0  0  0 
 29  8  1  0  0  0  0 
M  END 
>  <HBA> 
2 
 
>  <HBD> 
0 
 
>  <TPSA> 
26.3 
 
>  <cid> 
69877 
 
>  <dipole> 
1.96 
 
>  <excitation_energy_1> 
5.796 
 
>  <excitation_energy_2> 
6.86 
 
>  <excitation_energy_3> 
7.146 
 
>  <excitation_energy_4> 
7.247 
 
>  <homo_energy> 
-7.173 
 
>  <homo_lumo_gap> 
7.682 
 
>  <logP> 
2.662 
 
>  <lumo_energy> 
0.509 
 
>  <melting_point> 
5.8 
 
>  <molecular_refractivity> 
49.35 
 
>  <oscillator_strength_1> 
0.0012 
 
>  <oscillator_strength_2> 
0.0244 
 
>  <oscillator_strength_3> 
0.0187 
 
>  <oscillator_strength_4> 
0.0021 
 
>  <open_babel_can_smiles> 
CC(=O)OC1CCCCCCC1 
 
>  <mulliken_charges> 
30 
1   -0.523413 
2   -0.260987 
3   -0.257249 
4   -0.257285 
5   -0.273327 
6   -0.274028 
7   -0.277614 
8   -0.271341 
9   0.604163 
10   0.11175 
11   -0.472629 
12   -0.472041 
13   0.178695 
14   0.180327 
15   0.179862 
16   0.13125 
17   0.133504 
18   0.131551 
19   0.129051 
20   0.129468 
21   0.131477 
22   0.139641 
23   0.139722 
24   0.140023 
25   0.137514 
26   0.138849 
27   0.158166 
28   0.143645 
29   0.143518 
30   0.157737 
 
>  <lowdin_charges> 
30 
1   -0.464595 
2   -0.284592 
3   -0.278201 
4   -0.278074 
5   -0.280743 
6   -0.283164 
7   -0.289967 
8   -0.284927 
9   0.197861 
10   0.007919 
11   -0.271039 
12   -0.200072 
13   0.174542 
14   0.175615 
15   0.176127 
16   0.146577 
17   0.138951 
18   0.142597 
19   0.140641 
20   0.141088 
21   0.142219 
22   0.147634 
23   0.141915 
24   0.143006 
25   0.146955 
26   0.143006 
27   0.160446 
28   0.153792 
29   0.145449 
30   0.149035 
 
$$$$ 
 
