PCCDB-ID:  33936 
public computational chemistry database (PCCDB) project, http://pccdb.org 
 
 22 22  0  0  0  0  0  0  0  0999 V2000 
    1.3133    0.4515    0.3005 C   0  0  0  0  0  0  0  0  0  0  0  0 
    5.5115   -1.7285   -3.7719 C   0  0  0  0  0  0  0  0  0  0  0  0 
    4.5636    0.6540   -2.3266 C   0  0  0  0  0  0  0  0  0  0  0  0 
    2.5492    0.2926   -0.1890 C   0  0  0  0  0  0  0  0  0  0  0  0 
    2.9367   -3.2542   -1.4210 C   0  0  0  0  0  0  0  0  0  0  0  0 
    3.9095   -3.1021   -2.4075 C   0  0  0  0  0  0  0  0  0  0  0  0 
    2.5033   -2.1427   -0.7095 C   0  0  0  0  0  0  0  0  0  0  0  0 
    4.4502   -1.8455   -2.7000 C   0  0  0  0  0  0  0  0  0  0  0  0 
    3.9992   -0.7111   -1.9913 C   0  0  0  0  0  0  0  0  0  0  0  0 
    3.0195   -0.8642   -0.9820 C   0  0  0  0  0  0  0  0  0  0  0  0 
    1.0528    1.3177    0.9019 H   0  0  0  0  0  0  0  0  0  0  0  0 
    0.5189   -0.2661    0.1109 H   0  0  0  0  0  0  0  0  0  0  0  0 
    5.7887   -2.7159   -4.1533 H   0  0  0  0  0  0  0  0  0  0  0  0 
    6.4238   -1.2491   -3.3959 H   0  0  0  0  0  0  0  0  0  0  0  0 
    5.1689   -1.1308   -4.6271 H   0  0  0  0  0  0  0  0  0  0  0  0 
    5.5047    0.8488   -1.7918 H   0  0  0  0  0  0  0  0  0  0  0  0 
    3.8689    1.4575   -2.0723 H   0  0  0  0  0  0  0  0  0  0  0  0 
    4.7842    0.7443   -3.3944 H   0  0  0  0  0  0  0  0  0  0  0  0 
    3.2821    1.0714    0.0152 H   0  0  0  0  0  0  0  0  0  0  0  0 
    2.5338   -4.2385   -1.1973 H   0  0  0  0  0  0  0  0  0  0  0  0 
    4.2639   -3.9716   -2.9565 H   0  0  0  0  0  0  0  0  0  0  0  0 
    1.7778   -2.2582    0.0904 H   0  0  0  0  0  0  0  0  0  0  0  0 
  1 11  1  0  0  0  0 
  2 14  1  0  0  0  0 
  2  8  1  0  0  0  0 
  3 17  1  0  0  0  0 
  3  9  1  0  0  0  0 
  3 16  1  0  0  0  0 
  4 19  1  0  0  0  0 
  4  1  2  0  0  0  0 
  5 20  1  0  0  0  0 
  5  7  2  0  0  0  0 
  6  5  1  0  0  0  0 
  7 22  1  0  0  0  0 
  8  6  2  0  0  0  0 
  8  9  1  0  0  0  0 
  9 10  2  0  0  0  0 
 10  7  1  0  0  0  0 
 10  4  1  0  0  0  0 
 12  1  1  0  0  0  0 
 13  2  1  0  0  0  0 
 15  2  1  0  0  0  0 
 18  3  1  0  0  0  0 
 21  6  1  0  0  0  0 
M  END 
>  <HBA> 
0 
 
>  <HBD> 
0 
 
>  <TPSA> 
0.0 
 
>  <cid> 
33936 
 
>  <dipole> 
0.63 
 
>  <excitation_energy_1> 
4.715 
 
>  <excitation_energy_2> 
4.936 
 
>  <excitation_energy_3> 
5.64 
 
>  <excitation_energy_4> 
5.726 
 
>  <homo_energy> 
-5.97 
 
>  <homo_lumo_gap> 
5.41 
 
>  <logP> 
2.946 
 
>  <lumo_energy> 
-0.561 
 
>  <melting_point> 
6.13 
 
>  <molecular_refractivity> 
46.47 
 
>  <oscillator_strength_1> 
0.0099 
 
>  <oscillator_strength_2> 
0.3065 
 
>  <oscillator_strength_3> 
0.1422 
 
>  <oscillator_strength_4> 
0.0243 
 
>  <open_babel_can_smiles> 
C=Cc1cccc(c1C)C 
 
>  <mulliken_charges> 
22 
1   -0.337487 
2   -0.535897 
3   -0.537172 
4   -0.135726 
5   -0.128196 
6   -0.182725 
7   -0.184565 
8   0.131227 
9   0.063825 
10   0.103051 
11   0.140645 
12   0.143398 
13   0.154158 
14   0.159233 
15   0.161297 
16   0.160327 
17   0.161621 
18   0.157792 
19   0.134081 
20   0.125378 
21   0.11912 
22   0.126615 
 
>  <lowdin_charges> 
22 
1   -0.333138 
2   -0.443452 
3   -0.448081 
4   -0.149939 
5   -0.160803 
6   -0.169151 
7   -0.160358 
8   -0.007167 
9   -0.012416 
10   -0.014571 
11   0.160639 
12   0.15889 
13   0.156299 
14   0.158433 
15   0.158752 
16   0.159085 
17   0.162678 
18   0.158659 
19   0.157745 
20   0.155922 
21   0.153771 
22   0.158202 
 
$$$$ 
 
