PCCDB-ID:  33404 
public computational chemistry database (PCCDB) project, http://pccdb.org 
 
 31 31  0  0  1  0  0  0  0  0999 V2000 
    2.6520   -0.1351    1.6970 C   0  0  0  0  0  0  0  0  0  0  0  0 
    7.5822    1.8441   -2.3039 C   0  0  0  0  0  0  0  0  0  0  0  0 
    1.4537    7.2844    0.5234 C   0  0  0  0  0  0  0  0  0  0  0  0 
    2.2437    0.1607    0.2420 C   0  0  0  0  0  0  0  0  0  0  0  0 
    6.1089    1.7529   -2.7147 C   0  0  0  0  0  0  0  0  0  0  0  0 
    2.3882    6.2336   -0.0728 C   0  0  0  0  0  0  0  0  0  0  0  0 
    2.8019    1.4704   -0.2582 C   0  0  2  0  0  0  0  0  0  0  0  0 
    4.3646    2.7093   -1.4369 C   0  0  0  0  0  0  0  0  0  0  0  0 
    2.5925    3.8959   -0.1635 C   0  0  0  0  0  0  0  0  0  0  0  0 
    5.3694    2.8956   -2.2001 N   0  0  0  0  0  0  0  0  0  0  0  0 
    1.9368    4.8956    0.2845 N   0  0  0  0  0  0  0  0  0  0  0  0 
    3.8471    1.4794   -1.0223 N   0  0  0  0  0  0  0  0  0  0  0  0 
    2.1635    2.6039    0.1719 N   0  0  0  0  0  0  0  0  0  0  0  0 
    3.7109    3.8735   -0.9643 N   0  0  0  0  0  0  0  0  0  0  0  0 
    2.2432   -1.0991    2.0165 H   0  0  0  0  0  0  0  0  0  0  0  0 
    2.2834    0.6318    2.3875 H   0  0  0  0  0  0  0  0  0  0  0  0 
    3.7418   -0.1777    1.7889 H   0  0  0  0  0  0  0  0  0  0  0  0 
    8.1606    1.0288   -2.7547 H   0  0  0  0  0  0  0  0  0  0  0  0 
    7.6866    1.7762   -1.2150 H   0  0  0  0  0  0  0  0  0  0  0  0 
    8.0151    2.7975   -2.6251 H   0  0  0  0  0  0  0  0  0  0  0  0 
    1.7894    8.2964    0.2697 H   0  0  0  0  0  0  0  0  0  0  0  0 
    1.4211    7.1912    1.6139 H   0  0  0  0  0  0  0  0  0  0  0  0 
    0.4354    7.1501    0.1439 H   0  0  0  0  0  0  0  0  0  0  0  0 
    1.1489    0.1734    0.1550 H   0  0  0  0  0  0  0  0  0  0  0  0 
    2.6213   -0.6209   -0.4211 H   0  0  0  0  0  0  0  0  0  0  0  0 
    5.6829    0.7952   -2.3904 H   0  0  0  0  0  0  0  0  0  0  0  0 
    6.0460    1.7861   -3.8120 H   0  0  0  0  0  0  0  0  0  0  0  0 
    3.4147    6.4133    0.2928 H   0  0  0  0  0  0  0  0  0  0  0  0 
    2.4233    6.3619   -1.1694 H   0  0  0  0  0  0  0  0  0  0  0  0 
    1.3389    2.5658    0.7559 H   0  0  0  0  0  0  0  0  0  0  0  0 
    4.1093    4.7459   -1.2833 H   0  0  0  0  0  0  0  0  0  0  0  0 
  1 17  1  0  0  0  0 
  1 15  1  0  0  0  0 
  1 16  1  0  0  0  0 
  2 19  1  0  0  0  0 
  3 22  1  0  0  0  0 
  4  1  1  0  0  0  0 
  5 26  1  0  0  0  0 
  5  2  1  0  0  0  0 
  5 10  1  0  0  0  0 
  6 11  1  0  0  0  0 
  6 28  1  0  0  0  0 
  6  3  1  0  0  0  0 
  7 13  1  0  0  0  0 
  7  4  1  1  0  0  0 
  8 12  2  0  0  0  0 
  8 14  1  0  0  0  0 
  9 13  1  0  0  0  0 
  9 11  2  0  0  0  0 
 10  8  1  0  0  0  0 
 12  7  1  0  0  0  0 
 13 30  1  0  0  0  0 
 14  9  1  0  0  0  0 
 18  2  1  0  0  0  0 
 20  2  1  0  0  0  0 
 21  3  1  0  0  0  0 
 23  3  1  0  0  0  0 
 24  4  1  0  0  0  0 
 25  4  1  0  0  0  0 
 27  5  1  0  0  0  0 
 29  6  1  0  0  0  0 
 31 14  1  0  0  0  0 
M  RAD  2   7   2  10   2 
M  END 
>  <HBA> 
5 
 
>  <HBD> 
2 
 
>  <TPSA> 
62.73 
 
>  <cid> 
33404 
 
>  <dipole> 
2.79 
 
>  <excitation_energy_1> 
4.685 
 
>  <excitation_energy_2> 
4.775 
 
>  <excitation_energy_3> 
4.832 
 
>  <excitation_energy_4> 
5.464 
 
>  <homo_energy> 
-6.006 
 
>  <homo_lumo_gap> 
5.339 
 
>  <logP> 
1.444 
 
>  <lumo_energy> 
-0.667 
 
>  <melting_point> 
122.79 
 
>  <molecular_refractivity> 
57.83 
 
>  <oscillator_strength_1> 
0.0482 
 
>  <oscillator_strength_2> 
0.0035 
 
>  <oscillator_strength_3> 
0.1337 
 
>  <oscillator_strength_4> 
0.0007 
 
>  <open_babel_can_smiles> 
CC[N]C1=N[C](CC)N/C(=N/CC)/N1 
 
>  <mulliken_charges> 
31 
1   -0.448509 
2   -0.432835 
3   -0.433873 
4   -0.339728 
5   -0.138085 
6   -0.150051 
7   0.525797 
8   0.656128 
9   0.765343 
10   -0.500969 
11   -0.511475 
12   -0.520221 
13   -0.679909 
14   -0.716415 
15   0.16121 
16   0.14988 
17   0.17245 
18   0.132794 
19   0.141879 
20   0.149256 
21   0.135134 
22   0.151917 
23   0.15154 
24   0.151515 
25   0.185039 
26   0.149629 
27   0.134318 
28   0.131817 
29   0.129763 
30   0.347369 
31   0.349293 
 
>  <lowdin_charges> 
31 
1   -0.437938 
2   -0.445249 
3   -0.439606 
4   -0.278494 
5   -0.195149 
6   -0.196031 
7   0.123067 
8   0.115711 
9   0.135053 
10   -0.237126 
11   -0.275569 
12   -0.227276 
13   -0.225628 
14   -0.253628 
15   0.159516 
16   0.151226 
17   0.160833 
18   0.146917 
19   0.145183 
20   0.151111 
21   0.146329 
22   0.151548 
23   0.152376 
24   0.152136 
25   0.176465 
26   0.141077 
27   0.138492 
28   0.130137 
29   0.127663 
30   0.303746 
31   0.303108 
 
$$$$ 
 
