PCCDB-ID:  8159 
public computational chemistry database (PCCDB) project, http://pccdb.org 
 
 29 28  0  0  0  0  0  0  0  0999 V2000 
    1.2400    1.0993    0.3528 C   0  0  0  0  0  0  0  0  0  0  0  0 
    6.3149   -3.7904   -5.4736 C   0  0  0  0  0  0  0  0  0  0  0  0 
    2.7280    0.7392    0.2947 C   0  0  0  0  0  0  0  0  0  0  0  0 
    3.2549    0.5698   -1.1360 C   0  0  0  0  0  0  0  0  0  0  0  0 
    4.7453    0.2125   -1.2022 C   0  0  0  0  0  0  0  0  0  0  0  0 
    5.2674    0.0304   -2.6328 C   0  0  0  0  0  0  0  0  0  0  0  0 
    6.7594   -0.3211   -2.6893 C   0  0  0  0  0  0  0  0  0  0  0  0 
    7.3072   -0.4866   -4.1036 C   0  0  0  0  0  0  0  0  0  0  0  0 
    7.1194   -2.7986   -4.6647 C   0  0  0  0  0  0  0  0  0  0  0  0 
    8.0724   -3.0725   -3.9681 O   0  0  0  0  0  0  0  0  0  0  0  0 
    6.6310   -1.5452   -4.8259 O   0  0  0  0  0  0  0  0  0  0  0  0 
    0.8932    1.2041    1.3872 H   0  0  0  0  0  0  0  0  0  0  0  0 
    0.6264    0.3269   -0.1274 H   0  0  0  0  0  0  0  0  0  0  0  0 
    1.0402    2.0468   -0.1628 H   0  0  0  0  0  0  0  0  0  0  0  0 
    6.7415   -4.7869   -5.3547 H   0  0  0  0  0  0  0  0  0  0  0  0 
    6.3168   -3.5059   -6.5307 H   0  0  0  0  0  0  0  0  0  0  0  0 
    5.2723   -3.7904   -5.1384 H   0  0  0  0  0  0  0  0  0  0  0  0 
    2.9021   -0.1900    0.8558 H   0  0  0  0  0  0  0  0  0  0  0  0 
    3.3133    1.5166    0.8063 H   0  0  0  0  0  0  0  0  0  0  0  0 
    3.0773    1.4978   -1.6999 H   0  0  0  0  0  0  0  0  0  0  0  0 
    2.6710   -0.2107   -1.6465 H   0  0  0  0  0  0  0  0  0  0  0  0 
    4.9229   -0.7114   -0.6319 H   0  0  0  0  0  0  0  0  0  0  0  0 
    5.3295    0.9964   -0.6975 H   0  0  0  0  0  0  0  0  0  0  0  0 
    5.0882    0.9518   -3.2072 H   0  0  0  0  0  0  0  0  0  0  0  0 
    4.6917   -0.7579   -3.1354 H   0  0  0  0  0  0  0  0  0  0  0  0 
    6.9559   -1.2438   -2.1292 H   0  0  0  0  0  0  0  0  0  0  0  0 
    7.3472    0.4694   -2.2004 H   0  0  0  0  0  0  0  0  0  0  0  0 
    8.3778   -0.7042   -4.0847 H   0  0  0  0  0  0  0  0  0  0  0  0 
    7.1260    0.4086   -4.7060 H   0  0  0  0  0  0  0  0  0  0  0  0 
  1 12  1  0  0  0  0 
  2 15  1  0  0  0  0 
  2 17  1  0  0  0  0 
  2  9  1  0  0  0  0 
  3  1  1  0  0  0  0 
  3 19  1  0  0  0  0 
  3 18  1  0  0  0  0 
  4  3  1  0  0  0  0 
  5  4  1  0  0  0  0 
  5 23  1  0  0  0  0 
  5 22  1  0  0  0  0 
  6  5  1  0  0  0  0 
  7  6  1  0  0  0  0 
  7 27  1  0  0  0  0 
  7 26  1  0  0  0  0 
  8 28  1  0  0  0  0 
  8  7  1  0  0  0  0 
  9 10  2  0  0  0  0 
 11  9  1  0  0  0  0 
 11  8  1  0  0  0  0 
 13  1  1  0  0  0  0 
 14  1  1  0  0  0  0 
 16  2  1  0  0  0  0 
 20  4  1  0  0  0  0 
 21  4  1  0  0  0  0 
 24  6  1  0  0  0  0 
 25  6  1  0  0  0  0 
 29  8  1  0  0  0  0 
M  END 
>  <HBA> 
2 
 
>  <HBD> 
0 
 
>  <TPSA> 
26.3 
 
>  <cid> 
8159 
 
>  <dipole> 
1.77 
 
>  <excitation_energy_1> 
5.804 
 
>  <excitation_energy_2> 
6.96 
 
>  <excitation_energy_3> 
7.367 
 
>  <excitation_energy_4> 
7.479 
 
>  <homo_energy> 
-7.282 
 
>  <homo_lumo_gap> 
7.704 
 
>  <logP> 
2.52 
 
>  <lumo_energy> 
0.422 
 
>  <melting_point> 
-16.11 
 
>  <molecular_refractivity> 
46.66 
 
>  <oscillator_strength_1> 
0.0012 
 
>  <oscillator_strength_2> 
0.0237 
 
>  <oscillator_strength_3> 
0.0445 
 
>  <oscillator_strength_4> 
0.0301 
 
>  <open_babel_can_smiles> 
CCCCCCCOC(=O)C 
 
>  <mulliken_charges> 
29 
1   -0.441383 
2   -0.522649 
3   -0.247007 
4   -0.245989 
5   -0.253325 
6   -0.25214 
7   -0.282158 
8   -0.050869 
9   0.600652 
10   -0.468846 
11   -0.45229 
12   0.141896 
13   0.141137 
14   0.141071 
15   0.181679 
16   0.181075 
17   0.180403 
18   0.130726 
19   0.130126 
20   0.126472 
21   0.126749 
22   0.129949 
23   0.12694 
24   0.12583 
25   0.140442 
26   0.16027 
27   0.136077 
28   0.16846 
29   0.146705 
 
>  <lowdin_charges> 
29 
1   -0.44474 
2   -0.461746 
3   -0.27341 
4   -0.275797 
5   -0.275494 
6   -0.277785 
7   -0.288322 
8   -0.130969 
9   0.200059 
10   -0.267286 
11   -0.201588 
12   0.148397 
13   0.1473 
14   0.146053 
15   0.174522 
16   0.175944 
17   0.175872 
18   0.139173 
19   0.14 
20   0.137366 
21   0.13867 
22   0.139275 
23   0.138511 
24   0.137495 
25   0.144981 
26   0.155561 
27   0.14986 
28   0.157789 
29   0.150308 
 
$$$$ 
 
