PCCDB-ID:  41225 
public computational chemistry database (PCCDB) project, http://pccdb.org 
 
 27 29  0  0  0  0  0  0  0  0999 V2000 
    4.2300   -2.6853   -0.1401 C   0  0  0  0  0  0  0  0  0  0  0  0 
    2.9757   -2.2916   -0.6161 C   0  0  0  0  0  0  0  0  0  0  0  0 
    5.1299   -1.7261    0.3265 C   0  0  0  0  0  0  0  0  0  0  0  0 
    2.6252   -0.9449   -0.6247 C   0  0  0  0  0  0  0  0  0  0  0  0 
    4.7878   -0.3735    0.2989 C   0  0  0  0  0  0  0  0  0  0  0  0 
    3.6813    3.8472    0.1622 C   0  0  0  0  0  0  0  0  0  0  0  0 
    4.4882    4.9720    0.0211 C   0  0  0  0  0  0  0  0  0  0  0  0 
    5.2595    2.4226   -1.0502 C   0  0  0  0  0  0  0  0  0  0  0  0 
    3.5335    0.0310   -0.1839 C   0  0  0  0  0  0  0  0  0  0  0  0 
    4.0506    2.5809   -0.3450 C   0  0  0  0  0  0  0  0  0  0  0  0 
    5.6905    4.8188   -0.6739 C   0  0  0  0  0  0  0  0  0  0  0  0 
    6.0296    3.5582   -1.1878 C   0  0  0  0  0  0  0  0  0  0  0  0 
    3.0712    1.4597   -0.1726 C   0  0  0  0  0  0  0  0  0  0  0  0 
    7.5424    5.0042   -1.6629 C   0  0  0  0  0  0  0  0  0  0  0  0 
    6.6981    5.7303   -1.0000 N   0  0  0  0  0  0  0  0  0  0  0  0 
    1.8789    1.7078   -0.0248 O   0  0  0  0  0  0  0  0  0  0  0  0 
    8.6919    5.3823   -2.2085 O   0  0  0  0  0  0  0  0  0  0  0  0 
    7.2481    3.6936   -1.8395 O   0  0  0  0  0  0  0  0  0  0  0  0 
    4.5018   -3.7375   -0.1271 H   0  0  0  0  0  0  0  0  0  0  0  0 
    2.2699   -3.0370   -0.9725 H   0  0  0  0  0  0  0  0  0  0  0  0 
    6.0983   -2.0298    0.7147 H   0  0  0  0  0  0  0  0  0  0  0  0 
    1.6474   -0.6236   -0.9688 H   0  0  0  0  0  0  0  0  0  0  0  0 
    5.4850    0.3649    0.6823 H   0  0  0  0  0  0  0  0  0  0  0  0 
    2.7275    3.9191    0.6737 H   0  0  0  0  0  0  0  0  0  0  0  0 
    4.1965    5.9361    0.4241 H   0  0  0  0  0  0  0  0  0  0  0  0 
    5.5557    1.4753   -1.4844 H   0  0  0  0  0  0  0  0  0  0  0  0 
    8.7913    6.3316   -2.0184 H   0  0  0  0  0  0  0  0  0  0  0  0 
  1 19  1  0  0  0  0 
  1  3  2  0  0  0  0 
  2  1  1  0  0  0  0 
  3 21  1  0  0  0  0 
  4  2  2  0  0  0  0 
  4  9  1  0  0  0  0 
  5  3  1  0  0  0  0 
  5 23  1  0  0  0  0 
  6 24  1  0  0  0  0 
  7  6  1  0  0  0  0 
  7 25  1  0  0  0  0 
  8 10  1  0  0  0  0 
  9 13  1  0  0  0  0 
  9  5  2  0  0  0  0 
 10 13  1  0  0  0  0 
 10  6  2  0  0  0  0 
 11  7  2  0  0  0  0 
 12  8  2  0  0  0  0 
 12 11  1  0  0  0  0 
 13 16  2  0  0  0  0 
 14 15  2  0  0  0  0 
 15 11  1  0  0  0  0 
 17 27  1  0  0  0  0 
 17 14  1  0  0  0  0 
 18 14  1  0  0  0  0 
 18 12  1  0  0  0  0 
 20  2  1  0  0  0  0 
 22  4  1  0  0  0  0 
 26  8  1  0  0  0  0 
M  END 
>  <HBA> 
3 
 
>  <HBD> 
1 
 
>  <TPSA> 
63.07 
 
>  <cid> 
41225 
 
>  <dipole> 
3.04 
 
>  <excitation_energy_1> 
3.589 
 
>  <excitation_energy_2> 
4.222 
 
>  <excitation_energy_3> 
4.457 
 
>  <excitation_energy_4> 
4.543 
 
>  <homo_energy> 
-6.392 
 
>  <homo_lumo_gap> 
4.653 
 
>  <logP> 
2.352 
 
>  <lumo_energy> 
-1.739 
 
>  <melting_point> 
191.04 
 
>  <molecular_refractivity> 
66.71 
 
>  <oscillator_strength_1> 
0.0036 
 
>  <oscillator_strength_2> 
0.3405 
 
>  <oscillator_strength_3> 
0.0089 
 
>  <oscillator_strength_4> 
0.0071 
 
>  <open_babel_can_smiles> 
Oc1nc2c(o1)cc(cc2)C(=O)c1ccccc1 
 
>  <mulliken_charges> 
27 
1   -0.119384 
2   -0.135073 
3   -0.136414 
4   -0.150133 
5   -0.177535 
6   -0.167573 
7   -0.180332 
8   -0.23681 
9   0.071806 
10   0.049613 
11   0.263901 
12   0.321245 
13   0.321225 
14   0.706981 
15   -0.538806 
16   -0.46738 
17   -0.585649 
18   -0.486562 
19   0.137423 
20   0.138471 
21   0.136996 
22   0.15934 
23   0.148065 
24   0.164333 
25   0.151454 
26   0.170355 
27   0.440441 
 
>  <lowdin_charges> 
27 
1   -0.14052 
2   -0.155945 
3   -0.156974 
4   -0.129415 
5   -0.155702 
6   -0.132596 
7   -0.1616 
8   -0.167195 
9   -0.041896 
10   -0.047043 
11   0.028842 
12   0.066589 
13   0.153117 
14   0.195088 
15   -0.228376 
16   -0.248088 
17   -0.311505 
18   -0.109956 
19   0.159985 
20   0.163195 
21   0.160807 
22   0.174148 
23   0.167118 
24   0.178275 
25   0.172459 
26   0.181896 
27   0.385292 
 
$$$$ 
 
