PCCDB-ID:  66736 
public computational chemistry database (PCCDB) project, http://pccdb.org 
 
 16 16  0  0  0  0  0  0  0  0999 V2000 
   -1.8956    0.0204    0.0610 C   0  0  0  0  0  0  0  0  0  0  0  0 
   -1.1207    1.1816    0.0735 C   0  0  0  0  0  0  0  0  0  0  0  0 
   -1.2737   -1.2270   -0.0196 C   0  0  0  0  0  0  0  0  0  0  0  0 
    0.2698    1.0975    0.0010 C   0  0  0  0  0  0  0  0  0  0  0  0 
    0.1169   -1.3283   -0.0856 C   0  0  0  0  0  0  0  0  0  0  0  0 
    0.8703   -0.1562   -0.0794 C   0  0  0  0  0  0  0  0  0  0  0  0 
    2.9674   -0.9777   -0.9207 C   0  0  0  0  0  0  0  0  0  0  0  0 
    2.5138   -1.7336   -1.7326 O   0  0  0  0  0  0  0  0  0  0  0  0 
    4.2823   -0.8023   -0.7080 O   0  0  0  0  0  0  0  0  0  0  0  0 
    2.2715   -0.1639   -0.0674 O   0  0  0  0  0  0  0  0  0  0  0  0 
   -2.9783    0.0871    0.1148 H   0  0  0  0  0  0  0  0  0  0  0  0 
   -1.5953    2.1567    0.1379 H   0  0  0  0  0  0  0  0  0  0  0  0 
   -1.8711   -2.1342   -0.0288 H   0  0  0  0  0  0  0  0  0  0  0  0 
    0.8930    1.9861    0.0083 H   0  0  0  0  0  0  0  0  0  0  0  0 
    0.6036   -2.2926   -0.1565 H   0  0  0  0  0  0  0  0  0  0  0  0 
    4.3982   -0.1368   -0.0080 H   0  0  0  0  0  0  0  0  0  0  0  0 
  1  2  1  0  0  0  0 
  1 11  1  0  0  0  0 
  2 12  1  0  0  0  0 
  3  1  2  0  0  0  0 
  4 14  1  0  0  0  0 
  4  2  2  0  0  0  0 
  5  6  2  0  0  0  0 
  5  3  1  0  0  0  0 
  6 10  1  0  0  0  0 
  6  4  1  0  0  0  0 
  7  9  1  0  0  0  0 
  7 10  1  0  0  0  0 
  8  7  2  0  0  0  0 
  9 16  1  0  0  0  0 
 13  3  1  0  0  0  0 
 15  5  1  0  0  0  0 
M  END 
>  <HBA> 
3 
 
>  <HBD> 
1 
 
>  <TPSA> 
46.53 
 
>  <cid> 
66736 
 
>  <dipole> 
3.29 
 
>  <excitation_energy_1> 
5.302 
 
>  <excitation_energy_2> 
5.864 
 
>  <excitation_energy_3> 
6.121 
 
>  <excitation_energy_4> 
6.396 
 
>  <homo_energy> 
-6.77 
 
>  <homo_lumo_gap> 
6.495 
 
>  <logP> 
1.743 
 
>  <lumo_energy> 
-0.275 
 
>  <melting_point> 
95.91 
 
>  <molecular_refractivity> 
35.09 
 
>  <oscillator_strength_1> 
0.0016 
 
>  <oscillator_strength_2> 
0.0645 
 
>  <oscillator_strength_3> 
0.0027 
 
>  <oscillator_strength_4> 
0.0099 
 
>  <open_babel_can_smiles> 
OC(=O)Oc1ccccc1 
 
>  <mulliken_charges> 
16 
1   -0.12114 
2   -0.139148 
3   -0.144718 
4   -0.161817 
5   -0.136783 
6   0.346813 
7   0.767734 
8   -0.4417 
9   -0.565753 
10   -0.547604 
11   0.13539 
12   0.13847 
13   0.141178 
14   0.141045 
15   0.162682 
16   0.425349 
 
>  <lowdin_charges> 
16 
1   -0.156707 
2   -0.147809 
3   -0.146373 
4   -0.172787 
5   -0.166305 
6   0.105835 
7   0.241282 
8   -0.240632 
9   -0.335312 
10   -0.185983 
11   0.159377 
12   0.162229 
13   0.164037 
14   0.168429 
15   0.178414 
16   0.372305 
 
$$$$ 
 
