PCCDB-ID:  28497 
public computational chemistry database (PCCDB) project, http://pccdb.org 
 
 16 15  0  0  0  0  0  0  0  0999 V2000 
    1.6115    1.2918   -1.2387 C   0  0  0  0  0  0  0  0  0  0  0  0 
    2.9019    0.9109   -0.5324 C   0  0  0  0  0  0  0  0  0  0  0  0 
    4.8537    1.8611    0.4141 C   0  0  0  0  0  0  0  0  0  0  0  0 
    5.4964    3.2027    0.7329 C   0  0  0  0  0  0  0  0  0  0  0  0 
    3.6280    2.0977   -0.2505 O   0  0  0  0  0  0  0  0  0  0  0  0 
    4.5412    4.2133    1.9397 S   0  0  0  0  0  0  0  0  0  0  0  0 
    1.0258    0.3961   -1.4726 H   0  0  0  0  0  0  0  0  0  0  0  0 
    1.8262    1.8204   -2.1730 H   0  0  0  0  0  0  0  0  0  0  0  0 
    1.0052    1.9469   -0.6048 H   0  0  0  0  0  0  0  0  0  0  0  0 
    3.5076    0.2403   -1.1656 H   0  0  0  0  0  0  0  0  0  0  0  0 
    2.6888    0.3686    0.4041 H   0  0  0  0  0  0  0  0  0  0  0  0 
    4.6909    1.2859    1.3396 H   0  0  0  0  0  0  0  0  0  0  0  0 
    5.5330    1.2771   -0.2325 H   0  0  0  0  0  0  0  0  0  0  0  0 
    5.6436    3.7741   -0.1881 H   0  0  0  0  0  0  0  0  0  0  0  0 
    6.4750    3.0433    1.1955 H   0  0  0  0  0  0  0  0  0  0  0  0 
    3.3811    4.1727    1.2519 H   0  0  0  0  0  0  0  0  0  0  0  0 
  1  9  1  0  0  0  0 
  1  2  1  0  0  0  0 
  2  5  1  0  0  0  0 
  2 11  1  0  0  0  0 
  3  4  1  0  0  0  0 
  3 12  1  0  0  0  0 
  4 15  1  0  0  0  0 
  4  6  1  0  0  0  0 
  5  3  1  0  0  0  0 
  7  1  1  0  0  0  0 
  8  1  1  0  0  0  0 
 10  2  1  0  0  0  0 
 13  3  1  0  0  0  0 
 14  4  1  0  0  0  0 
 16  6  1  0  0  0  0 
M  END 
>  <HBA> 
2 
 
>  <HBD> 
1 
 
>  <TPSA> 
48.03 
 
>  <cid> 
28497 
 
>  <dipole> 
2.49 
 
>  <excitation_energy_1> 
5.439 
 
>  <excitation_energy_2> 
5.873 
 
>  <excitation_energy_3> 
6.117 
 
>  <excitation_energy_4> 
6.436 
 
>  <homo_energy> 
-6.302 
 
>  <homo_lumo_gap> 
7.282 
 
>  <logP> 
0.953 
 
>  <lumo_energy> 
0.98 
 
>  <melting_point> 
-13.92 
 
>  <molecular_refractivity> 
30.36 
 
>  <oscillator_strength_1> 
0.0084 
 
>  <oscillator_strength_2> 
0.0401 
 
>  <oscillator_strength_3> 
0.0142 
 
>  <oscillator_strength_4> 
0.0056 
 
>  <open_babel_can_smiles> 
SCCOCC 
 
>  <mulliken_charges> 
16 
1   -0.454718 
2   -0.004854 
3   0.000442 
4   -0.42178 
5   -0.474034 
6   -0.099322 
7   0.145767 
8   0.159475 
9   0.158897 
10   0.120742 
11   0.12496 
12   0.137723 
13   0.124611 
14   0.18743 
15   0.177054 
16   0.117607 
 
>  <lowdin_charges> 
16 
1   -0.450289 
2   -0.126375 
3   -0.134436 
4   -0.37549 
5   -0.278512 
6   -0.096801 
7   0.156087 
8   0.157613 
9   0.158631 
10   0.127837 
11   0.128693 
12   0.136115 
13   0.13227 
14   0.166441 
15   0.171607 
16   0.126608 
 
$$$$ 
 
