PCCDB-ID:  29819 
public computational chemistry database (PCCDB) project, http://pccdb.org 
 
 34 35  0  0  0  0  0  0  0  0999 V2000 
    0.6974    0.1593   -0.6015 C   0  0  0  0  0  0  0  0  0  0  0  0 
    6.6698    1.2901    4.3227 C   0  0  0  0  0  0  0  0  0  0  0  0 
    2.2114    0.3213   -0.4267 C   0  0  0  0  0  0  0  0  0  0  0  0 
    5.6272   -2.1650    2.1170 C   0  0  0  0  0  0  0  0  0  0  0  0 
    5.1737   -2.0097    0.8118 C   0  0  0  0  0  0  0  0  0  0  0  0 
    5.9865   -1.0589    2.8945 C   0  0  0  0  0  0  0  0  0  0  0  0 
    3.0078   -0.7124   -1.2328 C   0  0  0  0  0  0  0  0  0  0  0  0 
    5.4282    0.3760    1.0188 C   0  0  0  0  0  0  0  0  0  0  0  0 
    5.0642    0.6343   -2.0182 C   0  0  0  0  0  0  0  0  0  0  0  0 
    5.2266   -1.4513   -2.2642 C   0  0  0  0  0  0  0  0  0  0  0  0 
    5.0712   -0.7267    0.2440 C   0  0  0  0  0  0  0  0  0  0  0  0 
    5.8847    0.2188    2.3365 C   0  0  0  0  0  0  0  0  0  0  0  0 
    4.5470   -0.5684   -1.1687 C   0  0  0  0  0  0  0  0  0  0  0  0 
    5.2273   -0.2812   -3.1730 N   0  0  0  0  0  0  0  0  0  0  0  0 
    6.2050    1.3784    2.9863 O   0  0  0  0  0  0  0  0  0  0  0  0 
    0.1466    0.9041   -0.0156 H   0  0  0  0  0  0  0  0  0  0  0  0 
    0.3644   -0.8335   -0.2742 H   0  0  0  0  0  0  0  0  0  0  0  0 
    0.4025    0.2761   -1.6517 H   0  0  0  0  0  0  0  0  0  0  0  0 
    6.8620    2.3163    4.6418 H   0  0  0  0  0  0  0  0  0  0  0  0 
    7.5999    0.7100    4.3907 H   0  0  0  0  0  0  0  0  0  0  0  0 
    5.9173    0.8405    4.9844 H   0  0  0  0  0  0  0  0  0  0  0  0 
    2.4686    0.2378    0.6364 H   0  0  0  0  0  0  0  0  0  0  0  0 
    2.5045    1.3351   -0.7332 H   0  0  0  0  0  0  0  0  0  0  0  0 
    5.7072   -3.1605    2.5466 H   0  0  0  0  0  0  0  0  0  0  0  0 
    4.9039   -2.8840    0.2250 H   0  0  0  0  0  0  0  0  0  0  0  0 
    6.3391   -1.2042    3.9090 H   0  0  0  0  0  0  0  0  0  0  0  0 
    2.7133   -0.6589   -2.2895 H   0  0  0  0  0  0  0  0  0  0  0  0 
    2.7425   -1.7208   -0.8832 H   0  0  0  0  0  0  0  0  0  0  0  0 
    5.3650    1.3851    0.6231 H   0  0  0  0  0  0  0  0  0  0  0  0 
    6.0083    1.0398   -1.6261 H   0  0  0  0  0  0  0  0  0  0  0  0 
    4.3707    1.4653   -2.1978 H   0  0  0  0  0  0  0  0  0  0  0  0 
    4.6565   -2.3129   -2.6363 H   0  0  0  0  0  0  0  0  0  0  0  0 
    6.2255   -1.7914   -1.9533 H   0  0  0  0  0  0  0  0  0  0  0  0 
    6.0893   -0.1519   -3.6990 H   0  0  0  0  0  0  0  0  0  0  0  0 
  1  3  1  0  0  0  0 
  1 17  1  0  0  0  0 
  1 16  1  0  0  0  0 
  2 20  1  0  0  0  0 
  2 19  1  0  0  0  0 
  2 21  1  0  0  0  0 
  3 22  1  0  0  0  0 
  4 24  1  0  0  0  0 
  4  6  2  0  0  0  0 
  5  4  1  0  0  0  0 
  6 26  1  0  0  0  0 
  7 13  1  0  0  0  0 
  7 28  1  0  0  0  0 
  7  3  1  0  0  0  0 
  8 12  2  0  0  0  0 
  9 30  1  0  0  0  0 
  9 13  1  0  0  0  0 
 10 33  1  0  0  0  0 
 10 13  1  0  0  0  0 
 11  5  2  0  0  0  0 
 11  8  1  0  0  0  0 
 12  6  1  0  0  0  0 
 12 15  1  0  0  0  0 
 13 11  1  0  0  0  0 
 14 10  1  0  0  0  0 
 14  9  1  0  0  0  0 
 15  2  1  0  0  0  0 
 18  1  1  0  0  0  0 
 23  3  1  0  0  0  0 
 25  5  1  0  0  0  0 
 27  7  1  0  0  0  0 
 29  8  1  0  0  0  0 
 31  9  1  0  0  0  0 
 32 10  1  0  0  0  0 
 34 14  1  0  0  0  0 
M  END 
>  <HBA> 
2 
 
>  <HBD> 
1 
 
>  <TPSA> 
21.26 
 
>  <cid> 
29819 
 
>  <dipole> 
2.33 
 
>  <excitation_energy_1> 
4.986 
 
>  <excitation_energy_2> 
5.233 
 
>  <excitation_energy_3> 
5.348 
 
>  <excitation_energy_4> 
5.439 
 
>  <homo_energy> 
-5.821 
 
>  <homo_lumo_gap> 
5.919 
 
>  <logP> 
2.665 
 
>  <lumo_energy> 
0.098 
 
>  <melting_point> 
66.64 
 
>  <molecular_refractivity> 
66.42 
 
>  <oscillator_strength_1> 
0.0326 
 
>  <oscillator_strength_2> 
0.0015 
 
>  <oscillator_strength_3> 
0.0022 
 
>  <oscillator_strength_4> 
0.0027 
 
>  <open_babel_can_smiles> 
CCCC1(CNC1)c1cccc(c1)OC 
 
>  <mulliken_charges> 
34 
1   -0.441759 
2   -0.213716 
3   -0.257842 
4   -0.138052 
5   -0.182478 
6   -0.199931 
7   -0.257467 
8   -0.23899 
9   -0.141144 
10   -0.137159 
11   0.14111 
12   0.380527 
13   -0.021117 
14   -0.565143 
15   -0.508976 
16   0.140826 
17   0.140726 
18   0.142058 
19   0.168556 
20   0.150753 
21   0.151218 
22   0.145659 
23   0.130256 
24   0.127815 
25   0.122878 
26   0.128244 
27   0.149791 
28   0.128779 
29   0.135325 
30   0.127278 
31   0.138601 
32   0.133795 
33   0.127555 
34   0.292026 
 
>  <lowdin_charges> 
34 
1   -0.442952 
2   -0.277399 
3   -0.274765 
4   -0.144544 
5   -0.191017 
6   -0.219164 
7   -0.266525 
8   -0.196326 
9   -0.208633 
10   -0.203881 
11   0.006879 
12   0.101687 
13   0.001621 
14   -0.378087 
15   -0.200655 
16   0.150108 
17   0.145395 
18   0.145025 
19   0.161356 
20   0.144242 
21   0.146033 
22   0.145602 
23   0.137742 
24   0.15635 
25   0.156 
26   0.159952 
27   0.150566 
28   0.139929 
29   0.164274 
30   0.133153 
31   0.139197 
32   0.137851 
33   0.131886 
34   0.249101 
 
$$$$ 
 
