PCCDB-ID:  72374 
public computational chemistry database (PCCDB) project, http://pccdb.org 
 
 25 27  0  0  0  0  0  0  0  0999 V2000 
   -3.6068   -0.0211    0.8334 C   0  0  0  0  0  0  0  0  0  0  0  0 
    3.5802    0.0024    0.8267 C   0  0  0  0  0  0  0  0  0  0  0  0 
   -3.2772   -1.3178    0.4321 C   0  0  0  0  0  0  0  0  0  0  0  0 
    3.2478   -1.3028    0.4565 C   0  0  0  0  0  0  0  0  0  0  0  0 
   -2.7288    1.0271    0.5687 C   0  0  0  0  0  0  0  0  0  0  0  0 
    2.7083    1.0511    0.5475 C   0  0  0  0  0  0  0  0  0  0  0  0 
   -2.0631   -1.5666   -0.2071 C   0  0  0  0  0  0  0  0  0  0  0  0 
    2.0313   -1.5495   -0.1809 C   0  0  0  0  0  0  0  0  0  0  0  0 
   -1.5081    0.8004   -0.0901 C   0  0  0  0  0  0  0  0  0  0  0  0 
    1.4725    0.8275   -0.0839 C   0  0  0  0  0  0  0  0  0  0  0  0 
   -1.1830   -0.5157   -0.4588 C   0  0  0  0  0  0  0  0  0  0  0  0 
    1.1595   -0.4980   -0.4414 C   0  0  0  0  0  0  0  0  0  0  0  0 
   -0.5877    1.9244   -0.4048 C   0  0  0  0  0  0  0  0  0  0  0  0 
    0.6871    1.9416   -0.3871 N   0  0  0  0  0  0  0  0  0  0  0  0 
   -1.1930    3.1154   -0.6840 O   0  0  0  0  0  0  0  0  0  0  0  0 
   -0.0165   -0.7881   -1.1430 O   0  0  0  0  0  0  0  0  0  0  0  0 
   -4.5428    0.1730    1.3484 H   0  0  0  0  0  0  0  0  0  0  0  0 
    4.5263    0.2062    1.3202 H   0  0  0  0  0  0  0  0  0  0  0  0 
   -3.9618   -2.1393    0.6234 H   0  0  0  0  0  0  0  0  0  0  0  0 
    3.9302   -2.1242    0.6551 H   0  0  0  0  0  0  0  0  0  0  0  0 
   -2.9770    2.0337    0.8957 H   0  0  0  0  0  0  0  0  0  0  0  0 
    2.9604    2.0751    0.8046 H   0  0  0  0  0  0  0  0  0  0  0  0 
   -1.7828   -2.5651   -0.5261 H   0  0  0  0  0  0  0  0  0  0  0  0 
    1.7455   -2.5496   -0.4921 H   0  0  0  0  0  0  0  0  0  0  0  0 
   -2.1244    2.9477   -0.8976 H   0  0  0  0  0  0  0  0  0  0  0  0 
  1 17  1  0  0  0  0 
  2 18  1  0  0  0  0 
  3 19  1  0  0  0  0 
  3  1  2  0  0  0  0 
  4 20  1  0  0  0  0 
  4  2  2  0  0  0  0 
  5  1  1  0  0  0  0 
  5 21  1  0  0  0  0 
  6 22  1  0  0  0  0 
  6  2  1  0  0  0  0 
  7  3  1  0  0  0  0 
  8  4  1  0  0  0  0 
  9  5  2  0  0  0  0 
 10  6  2  0  0  0  0 
 11  7  2  0  0  0  0 
 11  9  1  0  0  0  0 
 12  8  2  0  0  0  0 
 12 10  1  0  0  0  0 
 13 14  2  0  0  0  0 
 13  9  1  0  0  0  0 
 14 10  1  0  0  0  0 
 15 13  1  0  0  0  0 
 16 11  1  0  0  0  0 
 16 12  1  0  0  0  0 
 23  7  1  0  0  0  0 
 24  8  1  0  0  0  0 
 25 15  1  0  0  0  0 
M  END 
>  <HBA> 
3 
 
>  <HBD> 
1 
 
>  <TPSA> 
38.33 
 
>  <cid> 
72374 
 
>  <dipole> 
3.94 
 
>  <excitation_energy_1> 
3.626 
 
>  <excitation_energy_2> 
4.341 
 
>  <excitation_energy_3> 
4.431 
 
>  <excitation_energy_4> 
4.725 
 
>  <homo_energy> 
-5.782 
 
>  <homo_lumo_gap> 
4.362 
 
>  <logP> 
3.183 
 
>  <lumo_energy> 
-1.42 
 
>  <melting_point> 
136.11 
 
>  <molecular_refractivity> 
63.67 
 
>  <oscillator_strength_1> 
0.0907 
 
>  <oscillator_strength_2> 
0.0214 
 
>  <oscillator_strength_3> 
0.0048 
 
>  <oscillator_strength_4> 
0.016 
 
>  <open_babel_can_smiles> 
OC1=Nc2ccccc2Oc2c1cccc2 
 
>  <mulliken_charges> 
25 
1   -0.123808 
2   -0.12941 
3   -0.134921 
4   -0.142708 
5   -0.221375 
6   -0.167905 
7   -0.158501 
8   -0.16907 
9   0.073264 
10   0.271639 
11   0.298618 
12   0.293432 
13   0.435392 
14   -0.511204 
15   -0.576992 
16   -0.576616 
17   0.141484 
18   0.130679 
19   0.145398 
20   0.131596 
21   0.149711 
22   0.144599 
23   0.150823 
24   0.13692 
25   0.408953 
 
>  <lowdin_charges> 
25 
1   -0.160795 
2   -0.159299 
3   -0.137279 
4   -0.160604 
5   -0.157247 
6   -0.154347 
7   -0.168364 
8   -0.172224 
9   -0.070645 
10   0.024409 
11   0.114634 
12   0.079187 
13   0.141129 
14   -0.16306 
15   -0.351274 
16   -0.182831 
17   0.164586 
18   0.159473 
19   0.166784 
20   0.160583 
21   0.164369 
22   0.168221 
23   0.172847 
24   0.165574 
25   0.356171 
 
$$$$ 
 
