PCCDB-ID:  15883 
public computational chemistry database (PCCDB) project, http://pccdb.org 
 
 21 21  0  0  0  0  0  0  0  0999 V2000 
   -3.7167   -1.4139    0.4587 C   0  0  0  0  0  0  0  0  0  0  0  0 
   -2.3562   -1.4426    0.7741 C   0  0  0  0  0  0  0  0  0  0  0  0 
   -4.2282   -0.3377   -0.2560 C   0  0  0  0  0  0  0  0  0  0  0  0 
   -1.5123   -0.4045    0.3855 C   0  0  0  0  0  0  0  0  0  0  0  0 
    0.1543    1.6016   -0.9307 C   0  0  0  0  0  0  0  0  0  0  0  0 
   -3.3836    0.6939   -0.6724 C   0  0  0  0  0  0  0  0  0  0  0  0 
   -2.0098    0.6796   -0.3487 C   0  0  0  0  0  0  0  0  0  0  0  0 
    0.5563    2.5290   -2.0861 C   0  0  0  0  0  0  0  0  0  0  0  0 
   -3.9894    1.7661   -1.4724 N   0  0  0  0  0  0  0  0  0  0  0  0 
    1.7221    2.7224   -2.3303 O   0  0  0  0  0  0  0  0  0  0  0  0 
   -0.4463    3.0527   -2.7945 O   0  0  0  0  0  0  0  0  0  0  0  0 
   -5.2008    1.9326   -1.3562 O   0  0  0  0  0  0  0  0  0  0  0  0 
   -3.2828    2.4230   -2.2447 O   0  0  0  0  0  0  0  0  0  0  0  0 
   -1.2490    1.7418   -0.6999 O   0  0  0  0  0  0  0  0  0  0  0  0 
   -4.3726   -2.2213    0.7667 H   0  0  0  0  0  0  0  0  0  0  0  0 
   -1.9458   -2.2733    1.3409 H   0  0  0  0  0  0  0  0  0  0  0  0 
   -5.2779   -0.2774   -0.5159 H   0  0  0  0  0  0  0  0  0  0  0  0 
   -0.4666   -0.4183    0.6724 H   0  0  0  0  0  0  0  0  0  0  0  0 
    0.7248    1.8770   -0.0388 H   0  0  0  0  0  0  0  0  0  0  0  0 
    0.4071    0.5731   -1.2121 H   0  0  0  0  0  0  0  0  0  0  0  0 
   -1.3148    2.7759   -2.4263 H   0  0  0  0  0  0  0  0  0  0  0  0 
  1 15  1  0  0  0  0 
  1  2  1  0  0  0  0 
  2 16  1  0  0  0  0 
  3  1  2  0  0  0  0 
  4 18  1  0  0  0  0 
  4  2  2  0  0  0  0 
  5 14  1  0  0  0  0 
  5 19  1  0  0  0  0 
  6  7  2  0  0  0  0 
  6  3  1  0  0  0  0 
  7  4  1  0  0  0  0 
  8  5  1  0  0  0  0 
  9 12  2  0  0  0  0 
  9  6  1  0  0  0  0 
 10  8  2  0  0  0  0 
 11 21  1  0  0  0  0 
 11  8  1  0  0  0  0 
 13  9  2  0  0  0  0 
 14  7  1  0  0  0  0 
 17  3  1  0  0  0  0 
 20  5  1  0  0  0  0 
M  END 
>  <HBA> 
3 
 
>  <HBD> 
1 
 
>  <TPSA> 
92.35 
 
>  <cid> 
15883 
 
>  <dipole> 
7.4 
 
>  <excitation_energy_1> 
3.63 
 
>  <excitation_energy_2> 
3.728 
 
>  <excitation_energy_3> 
4.218 
 
>  <excitation_energy_4> 
4.282 
 
>  <homo_energy> 
-7.211 
 
>  <homo_lumo_gap> 
4.367 
 
>  <logP> 
1.581 
 
>  <lumo_energy> 
-2.844 
 
>  <melting_point> 
124.71 
 
>  <molecular_refractivity> 
48.33 
 
>  <oscillator_strength_1> 
0.0445 
 
>  <oscillator_strength_2> 
0.0145 
 
>  <oscillator_strength_3> 
0.0028 
 
>  <oscillator_strength_4> 
0.0045 
 
>  <open_babel_can_smiles> 
OC(=O)COc1ccccc1N(=O)=O 
 
>  <mulliken_charges> 
21 
1   -0.13938 
2   -0.115451 
3   -0.149744 
4   -0.193513 
5   -0.152548 
6   0.232464 
7   0.379917 
8   0.578639 
9   0.373061 
10   -0.447531 
11   -0.584211 
12   -0.373098 
13   -0.404994 
14   -0.53243 
15   0.155733 
16   0.157764 
17   0.190992 
18   0.162292 
19   0.19637 
20   0.189178 
21   0.47649 
 
>  <lowdin_charges> 
21 
1   -0.163616 
2   -0.117999 
3   -0.121863 
4   -0.193741 
5   -0.166393 
6   -0.023257 
7   0.114821 
8   0.178012 
9   0.316308 
10   -0.24464 
11   -0.334377 
12   -0.226593 
13   -0.252682 
14   -0.191549 
15   0.173343 
16   0.173047 
17   0.189957 
18   0.17409 
19   0.177203 
20   0.172646 
21   0.367284 
 
$$$$ 
 
