PCCDB-ID:  14585 
public computational chemistry database (PCCDB) project, http://pccdb.org 
 
 26 27  0  0  0  0  0  0  0  0999 V2000 
   -1.3804   -0.1777    0.0214 C   0  0  0  0  0  0  0  0  0  0  0  0 
    5.5466    1.2829   -0.8336 C   0  0  0  0  0  0  0  0  0  0  0  0 
   -0.4302   -1.1748   -0.2195 C   0  0  0  0  0  0  0  0  0  0  0  0 
    4.8576    1.5893    0.3440 C   0  0  0  0  0  0  0  0  0  0  0  0 
   -0.9889    1.1550    0.0113 C   0  0  0  0  0  0  0  0  0  0  0  0 
    4.8512    0.7532   -1.9131 C   0  0  0  0  0  0  0  0  0  0  0  0 
    0.9005   -0.8339   -0.4566 C   0  0  0  0  0  0  0  0  0  0  0  0 
    3.4864    1.3564    0.4360 C   0  0  0  0  0  0  0  0  0  0  0  0 
    0.6782    2.9596   -0.2930 C   0  0  0  0  0  0  0  0  0  0  0  0 
    2.7822    0.0104   -3.0512 C   0  0  0  0  0  0  0  0  0  0  0  0 
    0.3471    1.5113   -0.2331 C   0  0  0  0  0  0  0  0  0  0  0  0 
    3.4689    0.5194   -1.8346 C   0  0  0  0  0  0  0  0  0  0  0  0 
    1.3152    0.5072   -0.4642 C   0  0  0  0  0  0  0  0  0  0  0  0 
    2.7688    0.8156   -0.6425 C   0  0  0  0  0  0  0  0  0  0  0  0 
   -0.1167    3.8448   -0.0334 O   0  0  0  0  0  0  0  0  0  0  0  0 
    3.3663   -0.3188   -4.0677 O   0  0  0  0  0  0  0  0  0  0  0  0 
   -2.4172   -0.4428    0.2077 H   0  0  0  0  0  0  0  0  0  0  0  0 
    6.6158    1.4608   -0.9046 H   0  0  0  0  0  0  0  0  0  0  0  0 
   -0.7237   -2.2210   -0.2169 H   0  0  0  0  0  0  0  0  0  0  0  0 
    5.3898    2.0037    1.1959 H   0  0  0  0  0  0  0  0  0  0  0  0 
   -1.7022    1.9558    0.1803 H   0  0  0  0  0  0  0  0  0  0  0  0 
    5.3515    0.5147   -2.8466 H   0  0  0  0  0  0  0  0  0  0  0  0 
    1.6385   -1.6149   -0.6181 H   0  0  0  0  0  0  0  0  0  0  0  0 
    2.9614    1.5735    1.3621 H   0  0  0  0  0  0  0  0  0  0  0  0 
    1.7098    3.2065   -0.6090 H   0  0  0  0  0  0  0  0  0  0  0  0 
    1.6782   -0.0440   -2.9955 H   0  0  0  0  0  0  0  0  0  0  0  0 
  1 17  1  0  0  0  0 
  2  4  2  0  0  0  0 
  3 19  1  0  0  0  0 
  3  1  2  0  0  0  0 
  4  8  1  0  0  0  0 
  4 20  1  0  0  0  0 
  5  1  1  0  0  0  0 
  5 21  1  0  0  0  0 
  6 12  2  0  0  0  0 
  6  2  1  0  0  0  0 
  7  3  1  0  0  0  0 
  8 24  1  0  0  0  0 
  9 11  1  0  0  0  0 
  9 15  2  0  0  0  0 
 10 26  1  0  0  0  0 
 10 12  1  0  0  0  0 
 11  5  2  0  0  0  0 
 12 14  1  0  0  0  0 
 13  7  2  0  0  0  0 
 13 11  1  0  0  0  0 
 14 13  1  0  0  0  0 
 14  8  2  0  0  0  0 
 16 10  2  0  0  0  0 
 18  2  1  0  0  0  0 
 22  6  1  0  0  0  0 
 23  7  1  0  0  0  0 
 25  9  1  0  0  0  0 
M  END 
>  <HBA> 
2 
 
>  <HBD> 
0 
 
>  <TPSA> 
34.14 
 
>  <cid> 
14585 
 
>  <dipole> 
3.35 
 
>  <excitation_energy_1> 
3.49 
 
>  <excitation_energy_2> 
3.495 
 
>  <excitation_energy_3> 
4.162 
 
>  <excitation_energy_4> 
4.365 
 
>  <homo_energy> 
-6.825 
 
>  <homo_lumo_gap> 
4.678 
 
>  <logP> 
2.979 
 
>  <lumo_energy> 
-2.147 
 
>  <melting_point> 
110.13 
 
>  <molecular_refractivity> 
62.65 
 
>  <oscillator_strength_1> 
0.0001 
 
>  <oscillator_strength_2> 
0.0104 
 
>  <oscillator_strength_3> 
0.1105 
 
>  <oscillator_strength_4> 
0.0015 
 
>  <open_babel_can_smiles> 
O=Cc1ccccc1c1ccccc1C=O 
 
>  <mulliken_charges> 
26 
1   -0.122472 
2   -0.122393 
3   -0.121592 
4   -0.121656 
5   -0.168913 
6   -0.168931 
7   -0.163399 
8   -0.163377 
9   0.18907 
10   0.189145 
11   0.05822 
12   0.058032 
13   0.001268 
14   0.00114 
15   -0.405423 
16   -0.405444 
17   0.145367 
18   0.145351 
19   0.147013 
20   0.147022 
21   0.170562 
22   0.170563 
23   0.148584 
24   0.148563 
25   0.121858 
26   0.121841 
 
>  <lowdin_charges> 
26 
1   -0.149481 
2   -0.14885 
3   -0.132381 
4   -0.134777 
5   -0.123263 
6   -0.122224 
7   -0.160925 
8   -0.160064 
9   0.044282 
10   0.044126 
11   -0.060405 
12   -0.060253 
13   0.00303 
14   0.003537 
15   -0.228272 
16   -0.227454 
17   0.164373 
18   0.163733 
19   0.164975 
20   0.167178 
21   0.180148 
22   0.179338 
23   0.167482 
24   0.166708 
25   0.130301 
26   0.129137 
 
$$$$ 
 
