PCCDB-ID:  70504 
public computational chemistry database (PCCDB) project, http://pccdb.org 
 
 17 17  0  0  1  0  0  0  0  0999 V2000 
   -0.7144    1.2377   -0.0682 C   0  0  0  0  0  0  0  0  0  0  0  0 
   -1.4013    0.0141   -0.0261 C   0  0  2  0  0  0  0  0  0  0  0  0 
    0.7544    1.2499   -0.0767 C   0  0  0  0  0  0  0  0  0  0  0  0 
    0.7088   -1.2519   -0.0433 C   0  0  0  0  0  0  0  0  0  0  0  0 
   -2.7504   -0.0448    0.0658 N   0  0  0  0  0  0  0  0  0  0  0  0 
    1.5457    2.2520   -0.0988 N   0  0  0  0  0  0  0  0  0  0  0  0 
    1.3707   -2.3447   -0.0193 N   0  0  0  0  0  0  0  0  0  0  0  0 
   -0.7078   -1.1577   -0.0387 N   0  0  0  0  0  0  0  0  0  0  0  0 
    1.3352   -0.0350   -0.0758 N   0  0  0  0  0  0  0  0  0  0  0  0 
   -1.5520    2.3264   -0.1341 N   0  0  0  0  0  0  0  0  0  0  0  0 
   -1.0465    3.4631   -0.1597 O   0  0  0  0  0  0  0  0  0  0  0  0 
   -3.1955    0.8633   -0.0430 H   0  0  0  0  0  0  0  0  0  0  0  0 
   -3.2443   -0.8493   -0.2956 H   0  0  0  0  0  0  0  0  0  0  0  0 
    0.9869    3.1070   -0.1022 H   0  0  0  0  0  0  0  0  0  0  0  0 
    0.7670   -3.1664   -0.0113 H   0  0  0  0  0  0  0  0  0  0  0  0 
   -1.2071   -2.0236    0.1155 H   0  0  0  0  0  0  0  0  0  0  0  0 
    2.3482   -0.0576   -0.0860 H   0  0  0  0  0  0  0  0  0  0  0  0 
  1  2  1  0  0  0  0 
  2  5  1  1  0  0  0 
  3  9  1  0  0  0  0 
  3  1  2  0  0  0  0 
  4  8  1  0  0  0  0 
  4  7  2  0  0  0  0 
  6  3  1  0  0  0  0 
  7 15  1  0  0  0  0 
  8  2  1  0  0  0  0 
  8 16  1  0  0  0  0 
  9  4  1  0  0  0  0 
 10  1  1  0  0  0  0 
 11 10  1  0  0  0  0 
 12  5  1  0  0  0  0 
 13  5  1  0  0  0  0 
 14  6  1  0  0  0  0 
 17  9  1  0  0  0  0 
M  RAD  4   2   2   6   2  10   2  11   2 
M  END 
>  <HBA> 
7 
 
>  <HBD> 
3 
 
>  <TPSA> 
133.27 
 
>  <cid> 
70504 
 
>  <dipole> 
8.03 
 
>  <excitation_energy_1> 
1.883 
 
>  <excitation_energy_2> 
3.647 
 
>  <excitation_energy_3> 
4.09 
 
>  <excitation_energy_4> 
4.165 
 
>  <homo_energy> 
-5.529 
 
>  <homo_lumo_gap> 
3.486 
 
>  <logP> 
1.365 
 
>  <lumo_energy> 
-2.044 
 
>  <melting_point> 
211.89 
 
>  <molecular_refractivity> 
40.7 
 
>  <oscillator_strength_1> 
0.0006 
 
>  <oscillator_strength_2> 
0.0003 
 
>  <oscillator_strength_3> 
0.0264 
 
>  <oscillator_strength_4> 
0.038 
 
>  <open_babel_can_smiles> 
[O][N]C1=C([NH])NC(=N)N[C]1N 
 
>  <mulliken_charges> 
17 
1   0.18638 
2   0.609164 
3   0.512172 
4   0.698741 
5   -0.771433 
6   -0.65226 
7   -0.633291 
8   -0.749538 
9   -0.692597 
10   -0.163384 
11   -0.367881 
12   0.378339 
13   0.341806 
14   0.328113 
15   0.277402 
16   0.339829 
17   0.358439 
 
>  <lowdin_charges> 
17 
1   -0.124744 
2   0.156904 
3   0.089894 
4   0.144204 
5   -0.43531 
6   -0.412731 
7   -0.446103 
8   -0.235017 
9   -0.226923 
10   0.001122 
11   -0.251041 
12   0.308933 
13   0.2942 
14   0.27265 
15   0.256233 
16   0.29761 
17   0.310119 
 
$$$$ 
 
