PCCDB-ID:  16777 
public computational chemistry database (PCCDB) project, http://pccdb.org 
 
 26 25  0  0  0  0  0  0  0  0999 V2000 
    0.5670    0.8450    0.3551 C   0  0  0  0  0  0  0  0  0  0  0  0 
    2.0282    0.4088    0.2082 C   0  0  0  0  0  0  0  0  0  0  0  0 
    2.8986    0.8030    1.4082 C   0  0  0  0  0  0  0  0  0  0  0  0 
    4.3686    0.3648    1.2634 C   0  0  0  0  0  0  0  0  0  0  0  0 
    5.2095    0.7151    2.4606 C   0  0  0  0  0  0  0  0  0  0  0  0 
    6.2695    1.5283    2.4528 C   0  0  0  0  0  0  0  0  0  0  0  0 
    7.1008    1.8818    3.6558 C   0  0  0  0  0  0  0  0  0  0  0  0 
    8.5583    1.4184    3.5206 C   0  0  0  0  0  0  0  0  0  0  0  0 
    9.4397    1.8054    4.6859 C   0  0  0  0  0  0  0  0  0  0  0  0 
    9.0710    2.4339    5.6538 O   0  0  0  0  0  0  0  0  0  0  0  0 
   -0.0274    0.5545   -0.5187 H   0  0  0  0  0  0  0  0  0  0  0  0 
    0.4872    1.9335    0.4653 H   0  0  0  0  0  0  0  0  0  0  0  0 
    0.1044    0.3893    1.2392 H   0  0  0  0  0  0  0  0  0  0  0  0 
    2.4517    0.8479   -0.7064 H   0  0  0  0  0  0  0  0  0  0  0  0 
    2.0735   -0.6811    0.0711 H   0  0  0  0  0  0  0  0  0  0  0  0 
    2.4769    0.3623    2.3236 H   0  0  0  0  0  0  0  0  0  0  0  0 
    2.8617    1.8922    1.5495 H   0  0  0  0  0  0  0  0  0  0  0  0 
    4.8003    0.8185    0.3610 H   0  0  0  0  0  0  0  0  0  0  0  0 
    4.3928   -0.7250    1.1050 H   0  0  0  0  0  0  0  0  0  0  0  0 
    4.8969    0.2709    3.4089 H   0  0  0  0  0  0  0  0  0  0  0  0 
    6.5825    1.9743    1.5053 H   0  0  0  0  0  0  0  0  0  0  0  0 
    6.6655    1.4445    4.5614 H   0  0  0  0  0  0  0  0  0  0  0  0 
    7.0999    2.9691    3.8137 H   0  0  0  0  0  0  0  0  0  0  0  0 
    9.0254    1.8216    2.6075 H   0  0  0  0  0  0  0  0  0  0  0  0 
    8.6179    0.3250    3.4055 H   0  0  0  0  0  0  0  0  0  0  0  0 
   10.4976    1.4641    4.6037 H   0  0  0  0  0  0  0  0  0  0  0  0 
  1 12  1  0  0  0  0 
  1 13  1  0  0  0  0 
  2  1  1  0  0  0  0 
  2  3  1  0  0  0  0 
  3 17  1  0  0  0  0 
  3 16  1  0  0  0  0 
  4  3  1  0  0  0  0 
  4  5  1  0  0  0  0 
  5 20  1  0  0  0  0 
  6  5  2  0  0  0  0 
  6  7  1  0  0  0  0 
  7 23  1  0  0  0  0 
  7 22  1  0  0  0  0 
  8  7  1  0  0  0  0 
  8  9  1  0  0  0  0 
  9 10  2  0  0  0  0 
 11  1  1  0  0  0  0 
 14  2  1  0  0  0  0 
 15  2  1  0  0  0  0 
 18  4  1  0  0  0  0 
 19  4  1  0  0  0  0 
 21  6  1  0  0  0  0 
 24  8  1  0  0  0  0 
 25  8  1  0  0  0  0 
 26  9  1  0  0  0  0 
M  END 
>  <HBA> 
1 
 
>  <HBD> 
0 
 
>  <TPSA> 
17.07 
 
>  <cid> 
16777 
 
>  <dipole> 
2.59 
 
>  <excitation_energy_1> 
4.29 
 
>  <excitation_energy_2> 
5.242 
 
>  <excitation_energy_3> 
6.063 
 
>  <excitation_energy_4> 
6.352 
 
>  <homo_energy> 
-6.468 
 
>  <homo_lumo_gap> 
5.927 
 
>  <logP> 
2.712 
 
>  <lumo_energy> 
-0.542 
 
>  <melting_point> 
12.96 
 
>  <molecular_refractivity> 
45.1 
 
>  <oscillator_strength_1> 
0.0003 
 
>  <oscillator_strength_2> 
0.0009 
 
>  <oscillator_strength_3> 
0.0161 
 
>  <oscillator_strength_4> 
0.0283 
 
>  <open_babel_can_smiles> 
CCCC/C=C/CCC=O 
 
>  <mulliken_charges> 
26 
1   -0.441635 
2   -0.247008 
3   -0.246071 
4   -0.302888 
5   -0.092059 
6   -0.101983 
7   -0.297829 
8   -0.348713 
9   0.253157 
10   -0.381722 
11   0.142298 
12   0.142839 
13   0.142042 
14   0.130861 
15   0.130258 
16   0.129076 
17   0.136255 
18   0.134529 
19   0.137425 
20   0.116822 
21   0.11382 
22   0.15517 
23   0.160012 
24   0.161779 
25   0.168374 
26   0.105189 
 
>  <lowdin_charges> 
26 
1   -0.443585 
2   -0.270742 
3   -0.271756 
4   -0.269184 
5   -0.165016 
6   -0.174488 
7   -0.264973 
8   -0.311386 
9   0.057136 
10   -0.218404 
11   0.150176 
12   0.145161 
13   0.14726 
14   0.139384 
15   0.136654 
16   0.138957 
17   0.140205 
18   0.144309 
19   0.143751 
20   0.145713 
21   0.143845 
22   0.156601 
23   0.156693 
24   0.164443 
25   0.164992 
26   0.114254 
 
$$$$ 
 
