PCCDB-ID:  28926 
public computational chemistry database (PCCDB) project, http://pccdb.org 
 
 24 24  0  0  0  0  0  0  0  0999 V2000 
    3.1101    2.7373   -1.0557 C   0  0  0  0  0  0  0  0  0  0  0  0 
    2.4139   -0.9248    4.0080 C   0  0  0  0  0  0  0  0  0  0  0  0 
    3.3515    1.7072   -0.4726 C   0  0  0  0  0  0  0  0  0  0  0  0 
    2.9294   -0.0218    3.3936 C   0  0  0  0  0  0  0  0  0  0  0  0 
    8.5858    0.6928    1.6888 C   0  0  0  0  0  0  0  0  0  0  0  0 
    7.8228    0.4904    2.8405 C   0  0  0  0  0  0  0  0  0  0  0  0 
    7.9280    0.8804    0.4730 C   0  0  0  0  0  0  0  0  0  0  0  0 
    6.4318    0.4679    2.7825 C   0  0  0  0  0  0  0  0  0  0  0  0 
    6.5356    0.8801    0.4013 C   0  0  0  0  0  0  0  0  0  0  0  0 
    3.6489    0.4589    0.2553 C   0  0  0  0  0  0  0  0  0  0  0  0 
    3.5573    1.0782    2.6435 C   0  0  0  0  0  0  0  0  0  0  0  0 
    5.7609    0.6706    1.5592 C   0  0  0  0  0  0  0  0  0  0  0  0 
    4.3624    0.6400    1.5087 N   0  0  0  0  0  0  0  0  0  0  0  0 
    2.8993    3.6480   -1.5692 H   0  0  0  0  0  0  0  0  0  0  0  0 
    1.9596   -1.7206    4.5537 H   0  0  0  0  0  0  0  0  0  0  0  0 
    9.6706    0.7000    1.7381 H   0  0  0  0  0  0  0  0  0  0  0  0 
    8.3128    0.3267    3.7971 H   0  0  0  0  0  0  0  0  0  0  0  0 
    8.5011    1.0527   -0.4347 H   0  0  0  0  0  0  0  0  0  0  0  0 
    5.8619    0.2572    3.6820 H   0  0  0  0  0  0  0  0  0  0  0  0 
    6.0521    1.0812   -0.5487 H   0  0  0  0  0  0  0  0  0  0  0  0 
    4.2284   -0.2163   -0.3841 H   0  0  0  0  0  0  0  0  0  0  0  0 
    2.7094   -0.0657    0.4751 H   0  0  0  0  0  0  0  0  0  0  0  0 
    4.1870    1.6723    3.3145 H   0  0  0  0  0  0  0  0  0  0  0  0 
    2.7800    1.7643    2.2769 H   0  0  0  0  0  0  0  0  0  0  0  0 
  1  3  3  0  0  0  0 
  2 15  1  0  0  0  0 
  3 10  1  0  0  0  0 
  4  2  3  0  0  0  0 
  5 16  1  0  0  0  0 
  5  6  2  0  0  0  0 
  6 17  1  0  0  0  0 
  7  5  1  0  0  0  0 
  8  6  1  0  0  0  0 
  8 19  1  0  0  0  0 
  9  7  2  0  0  0  0 
  9 12  1  0  0  0  0 
 10 22  1  0  0  0  0 
 10 13  1  0  0  0  0 
 11 23  1  0  0  0  0 
 11  4  1  0  0  0  0 
 12  8  2  0  0  0  0 
 13 12  1  0  0  0  0 
 13 11  1  0  0  0  0 
 14  1  1  0  0  0  0 
 18  7  1  0  0  0  0 
 20  9  1  0  0  0  0 
 21 10  1  0  0  0  0 
 24 11  1  0  0  0  0 
M  END 
>  <HBA> 
1 
 
>  <HBD> 
0 
 
>  <TPSA> 
3.24 
 
>  <cid> 
28926 
 
>  <dipole> 
1.02 
 
>  <excitation_energy_1> 
4.554 
 
>  <excitation_energy_2> 
4.805 
 
>  <excitation_energy_3> 
5.016 
 
>  <excitation_energy_4> 
5.164 
 
>  <homo_energy> 
-5.306 
 
>  <homo_lumo_gap> 
5.437 
 
>  <logP> 
1.759 
 
>  <lumo_energy> 
0.131 
 
>  <melting_point> 
44.7 
 
>  <molecular_refractivity> 
56.2 
 
>  <oscillator_strength_1> 
0.0387 
 
>  <oscillator_strength_2> 
0.0161 
 
>  <oscillator_strength_3> 
0.0158 
 
>  <oscillator_strength_4> 
0.1866 
 
>  <open_babel_can_smiles> 
C#CCN(c1ccccc1)CC#C 
 
>  <mulliken_charges> 
24 
1   -0.470292 
2   -0.474734 
3   0.338712 
4   0.353725 
5   -0.133569 
6   -0.138235 
7   -0.13991 
8   -0.180171 
9   -0.18239 
10   -0.315896 
11   -0.32314 
12   0.33249 
13   -0.45277 
14   0.19325 
15   0.192398 
16   0.121269 
17   0.126098 
18   0.126017 
19   0.135717 
20   0.134518 
21   0.191232 
22   0.189069 
23   0.190328 
24   0.186285 
 
>  <lowdin_charges> 
24 
1   -0.244927 
2   -0.246135 
3   -0.059761 
4   -0.055028 
5   -0.181937 
6   -0.14697 
7   -0.147179 
8   -0.202916 
9   -0.205318 
10   -0.185014 
11   -0.184276 
12   0.06062 
13   -0.115197 
14   0.206844 
15   0.207174 
16   0.15304 
17   0.15627 
18   0.156631 
19   0.162695 
20   0.16338 
21   0.179326 
22   0.175175 
23   0.180173 
24   0.173329 
 
$$$$ 
 
