PCCDB-ID:  70655 
public computational chemistry database (PCCDB) project, http://pccdb.org 
 
 21 21  0  0  0  0  0  0  0  0999 V2000 
    1.2610   -1.1316    1.0963 C   0  0  0  0  0  0  0  0  0  0  0  0 
    6.6203   -1.8828    0.6566 C   0  0  0  0  0  0  0  0  0  0  0  0 
    5.2615   -1.6997    0.7826 C   0  0  0  0  0  0  0  0  0  0  0  0 
    6.6071   -0.7005   -1.4597 C   0  0  0  0  0  0  0  0  0  0  0  0 
    7.2900   -1.3793   -0.4698 C   0  0  0  0  0  0  0  0  0  0  0  0 
    4.5138   -1.0075   -0.2058 C   0  0  0  0  0  0  0  0  0  0  0  0 
    5.2293   -0.5104   -1.3373 C   0  0  0  0  0  0  0  0  0  0  0  0 
    2.5227   -1.3302    1.0363 N   0  0  0  0  0  0  0  0  0  0  0  0 
    3.1680   -0.8394   -0.0567 N   0  0  0  0  0  0  0  0  0  0  0  0 
    8.7327   -1.5752   -0.6014 N   0  0  0  0  0  0  0  0  0  0  0  0 
    4.5799    0.2140   -2.4213 N   0  0  0  0  0  0  0  0  0  0  0  0 
    9.3053   -2.1875    0.3020 O   0  0  0  0  0  0  0  0  0  0  0  0 
    9.2860   -1.1188   -1.6020 O   0  0  0  0  0  0  0  0  0  0  0  0 
    5.2668    0.6008   -3.3612 O   0  0  0  0  0  0  0  0  0  0  0  0 
    3.3521    0.4154   -2.3538 O   0  0  0  0  0  0  0  0  0  0  0  0 
    0.7353   -1.5172    1.9636 H   0  0  0  0  0  0  0  0  0  0  0  0 
    0.6894   -0.6011    0.3279 H   0  0  0  0  0  0  0  0  0  0  0  0 
    7.1848   -2.4115    1.4150 H   0  0  0  0  0  0  0  0  0  0  0  0 
    4.7270   -2.0804    1.6425 H   0  0  0  0  0  0  0  0  0  0  0  0 
    7.1267   -0.3148   -2.3259 H   0  0  0  0  0  0  0  0  0  0  0  0 
    2.6766   -0.3367   -0.7964 H   0  0  0  0  0  0  0  0  0  0  0  0 
  1 16  1  0  0  0  0 
  2  3  1  0  0  0  0 
  2 18  1  0  0  0  0 
  3 19  1  0  0  0  0 
  4  7  2  0  0  0  0 
  4  5  1  0  0  0  0 
  5  2  2  0  0  0  0 
  6  9  1  0  0  0  0 
  6  3  2  0  0  0  0 
  7  6  1  0  0  0  0 
  8  1  2  0  0  0  0 
  9  8  1  0  0  0  0 
 10  5  1  0  0  0  0 
 10 12  2  0  0  0  0 
 11 15  2  0  0  0  0 
 11  7  1  0  0  0  0 
 13 10  2  0  0  0  0 
 14 11  2  0  0  0  0 
 17  1  1  0  0  0  0 
 20  4  1  0  0  0  0 
 21  9  1  0  0  0  0 
M  END 
>  <HBA> 
2 
 
>  <HBD> 
1 
 
>  <TPSA> 
116.03 
 
>  <cid> 
70655 
 
>  <dipole> 
6.42 
 
>  <excitation_energy_1> 
3.161 
 
>  <excitation_energy_2> 
3.729 
 
>  <excitation_energy_3> 
3.756 
 
>  <excitation_energy_4> 
3.761 
 
>  <homo_energy> 
-6.735 
 
>  <homo_lumo_gap> 
3.777 
 
>  <logP> 
2.65 
 
>  <lumo_energy> 
-2.958 
 
>  <melting_point> 
135.33 
 
>  <molecular_refractivity> 
57.08 
 
>  <oscillator_strength_1> 
0.0786 
 
>  <oscillator_strength_2> 
0.438 
 
>  <oscillator_strength_3> 
0.0 
 
>  <oscillator_strength_4> 
0.0002 
 
>  <open_babel_can_smiles> 
C=NNc1ccc(cc1N(=O)=O)N(=O)=O 
 
>  <mulliken_charges> 
21 
1   -0.158546 
2   -0.141144 
3   -0.183822 
4   -0.206329 
5   0.28003 
6   0.402068 
7   0.247706 
8   -0.125382 
9   -0.579504 
10   0.375583 
11   0.379234 
12   -0.397254 
13   -0.395082 
14   -0.379355 
15   -0.4426 
16   0.180838 
17   0.154785 
18   0.194667 
19   0.189764 
20   0.229624 
21   0.374719 
 
>  <lowdin_charges> 
21 
1   -0.253341 
2   -0.109641 
3   -0.176569 
4   -0.108402 
5   -0.019805 
6   0.090575 
7   -0.038545 
8   -0.068298 
9   -0.168613 
10   0.311689 
11   0.31428 
12   -0.251327 
13   -0.24663 
14   -0.227538 
15   -0.280373 
16   0.179753 
17   0.150781 
18   0.195973 
19   0.191695 
20   0.214546 
21   0.29979 
 
$$$$ 
 
