PCCDB-ID:  38337 
public computational chemistry database (PCCDB) project, http://pccdb.org 
 
 30 30  0  0  1  0  0  0  0  0999 V2000 
    0.8875   -0.7153    0.5498 C   0  0  0  0  0  0  0  0  0  0  0  0 
    5.9835    1.5555   -3.5290 C   0  0  0  0  0  0  0  0  0  0  0  0 
    3.7088    2.4843   -2.9327 C   0  0  0  0  0  0  0  0  0  0  0  0 
    3.3348   -2.4219   -3.3427 C   0  0  0  0  0  0  0  0  0  0  0  0 
    2.3819   -0.4703    0.4507 C   0  0  0  0  0  0  0  0  0  0  0  0 
    3.8978    0.0659   -3.7216 C   0  0  0  0  0  0  0  0  0  0  0  0 
    4.5940    1.2401   -2.9705 C   0  0  0  0  0  0  0  0  0  0  0  0 
    4.2933   -1.2677   -3.0586 C   0  0  2  0  0  0  0  0  0  0  0  0 
    5.6406   -1.6352   -3.3731 O   0  0  0  0  0  0  0  0  0  0  0  0 
    5.2180   -1.4263   -0.2729 O   0  0  0  0  0  0  0  0  0  0  0  0 
    2.7878   -0.7061   -0.9202 O   0  0  0  0  0  0  0  0  0  0  0  0 
    4.7895    0.8071   -1.5799 O   0  0  0  0  0  0  0  0  0  0  0  0 
    4.3763   -0.7389   -1.2788 P   0  0  2  0  0  0  0  0  0  0  0  0 
    0.5484   -0.5352    1.5762 H   0  0  0  0  0  0  0  0  0  0  0  0 
    0.6429   -1.7484    0.2827 H   0  0  0  0  0  0  0  0  0  0  0  0 
    0.3365   -0.0452   -0.1184 H   0  0  0  0  0  0  0  0  0  0  0  0 
    5.9027    1.9326   -4.5557 H   0  0  0  0  0  0  0  0  0  0  0  0 
    6.6073    0.6591   -3.5276 H   0  0  0  0  0  0  0  0  0  0  0  0 
    6.4673    2.3225   -2.9161 H   0  0  0  0  0  0  0  0  0  0  0  0 
    3.5156    2.8447   -3.9500 H   0  0  0  0  0  0  0  0  0  0  0  0 
    4.1979    3.2857   -2.3701 H   0  0  0  0  0  0  0  0  0  0  0  0 
    2.7492    2.2614   -2.4551 H   0  0  0  0  0  0  0  0  0  0  0  0 
    3.3193   -2.6367   -4.4204 H   0  0  0  0  0  0  0  0  0  0  0  0 
    2.3155   -2.1899   -3.0250 H   0  0  0  0  0  0  0  0  0  0  0  0 
    3.6700   -3.3238   -2.8215 H   0  0  0  0  0  0  0  0  0  0  0  0 
    2.9469   -1.1401    1.1058 H   0  0  0  0  0  0  0  0  0  0  0  0 
    2.6304    0.5644    0.7172 H   0  0  0  0  0  0  0  0  0  0  0  0 
    4.1676    0.0685   -4.7853 H   0  0  0  0  0  0  0  0  0  0  0  0 
    2.8103    0.1837   -3.6572 H   0  0  0  0  0  0  0  0  0  0  0  0 
    5.6578   -1.8806   -4.3134 H   0  0  0  0  0  0  0  0  0  0  0  0 
  1 14  1  0  0  0  0 
  2 18  1  0  0  0  0 
  2  7  1  0  0  0  0 
  2 19  1  0  0  0  0 
  3 22  1  0  0  0  0 
  3 21  1  0  0  0  0 
  4  8  1  0  0  0  0 
  4 24  1  0  0  0  0 
  4 25  1  0  0  0  0 
  5  1  1  0  0  0  0 
  5 27  1  0  0  0  0 
  5 26  1  0  0  0  0 
  6 29  1  0  0  0  0 
  6  8  1  0  0  0  0 
  6  7  1  0  0  0  0 
  7  3  1  0  0  0  0 
  7 12  1  0  0  0  0 
  8  9  1  6  0  0  0 
  8 13  1  0  0  0  0 
 11  5  1  0  0  0  0 
 12 13  1  0  0  0  0 
 13 11  1  0  0  0  0 
 13 10  2  1  0  0  0 
 15  1  1  0  0  0  0 
 16  1  1  0  0  0  0 
 17  2  1  0  0  0  0 
 20  3  1  0  0  0  0 
 23  4  1  0  0  0  0 
 28  6  1  0  0  0  0 
 30  9  1  0  0  0  0 
M  END 
>  <HBA> 
4 
 
>  <HBD> 
1 
 
>  <TPSA> 
65.57 
 
>  <cid> 
38337 
 
>  <dipole> 
5.32 
 
>  <excitation_energy_1> 
6.463 
 
>  <excitation_energy_2> 
6.624 
 
>  <excitation_energy_3> 
6.747 
 
>  <excitation_energy_4> 
7.099 
 
>  <homo_energy> 
-7.255 
 
>  <homo_lumo_gap> 
8.523 
 
>  <logP> 
2.123 
 
>  <lumo_energy> 
1.268 
 
>  <melting_point> 
32.88 
 
>  <molecular_refractivity> 
50.53 
 
>  <oscillator_strength_1> 
0.0163 
 
>  <oscillator_strength_2> 
0.0029 
 
>  <oscillator_strength_3> 
0.006 
 
>  <oscillator_strength_4> 
0.0121 
 
>  <open_babel_can_smiles> 
CCO[P@]1(=O)OC(C[C@@]1(C)O)(C)C 
 
>  <mulliken_charges> 
30 
1   -0.456459 
2   -0.45404 
3   -0.453031 
4   -0.474632 
5   -0.035576 
6   -0.33672 
7   0.314567 
8   0.088971 
9   -0.615463 
10   -0.526866 
11   -0.564547 
12   -0.568009 
13   1.162672 
14   0.151993 
15   0.162011 
16   0.156203 
17   0.133664 
18   0.182319 
19   0.158853 
20   0.143447 
21   0.160564 
22   0.156568 
23   0.134846 
24   0.172464 
25   0.180644 
26   0.178533 
27   0.153508 
28   0.141966 
29   0.16122 
30   0.39033 
 
>  <lowdin_charges> 
30 
1   -0.447597 
2   -0.453403 
3   -0.446205 
4   -0.450992 
5   -0.116545 
6   -0.30231 
7   0.143793 
8   -0.028479 
9   -0.435025 
10   -0.568498 
11   -0.422052 
12   -0.403498 
13   1.055874 
14   0.158395 
15   0.157784 
16   0.157088 
17   0.147369 
18   0.170675 
19   0.161423 
20   0.152981 
21   0.161627 
22   0.157249 
23   0.144781 
24   0.168326 
25   0.171065 
26   0.163873 
27   0.146782 
28   0.152012 
29   0.161138 
30   0.342367 
 
$$$$ 
 
