PCCDB-ID:  26751 
public computational chemistry database (PCCDB) project, http://pccdb.org 
 
  4  3  0  0  0  0  0  0  0  0999 V2000 
    1.0106   -0.2164   -0.0552 P   0  0  0  0  0  0  0  0  0  0  0  0 
    2.3961    0.1120   -0.0257 H   0  0  0  0  0  0  0  0  0  0  0  0 
    0.7042    0.8005   -1.0043 H   0  0  0  0  0  0  0  0  0  0  0  0 
    0.7042    0.6149    1.0599 H   0  0  0  0  0  0  0  0  0  0  0  0 
  1  2  1  0  0  0  0 
  1  4  1  0  0  0  0 
  3  1  1  0  0  0  0 
M  END 
>  <HBA> 
0 
 
>  <HBD> 
1 
 
>  <TPSA> 
13.59 
 
>  <cid> 
26751 
 
>  <dipole> 
0.96 
 
>  <excitation_energy_1> 
6.464 
 
>  <excitation_energy_2> 
7.56 
 
>  <excitation_energy_3> 
7.561 
 
>  <excitation_energy_4> 
8.032 
 
>  <homo_energy> 
-7.502 
 
>  <homo_lumo_gap> 
8.373 
 
>  <logP> 
0.058 
 
>  <lumo_energy> 
0.871 
 
>  <melting_point> 
0.0 
 
>  <molecular_refractivity> 
11.11 
 
>  <oscillator_strength_1> 
0.1659 
 
>  <oscillator_strength_2> 
0.0706 
 
>  <oscillator_strength_3> 
0.0706 
 
>  <oscillator_strength_4> 
0.0466 
 
>  <open_babel_can_smiles> 
P 
 
>  <mulliken_charges> 
4 
1   -0.091642 
2   0.03054 
3   0.030541 
4   0.030561 
 
>  <lowdin_charges> 
4 
1   -0.141778 
2   0.045018 
3   0.048467 
4   0.048293 
 
$$$$ 
 
