PCCDB-ID:  23539 
public computational chemistry database (PCCDB) project, http://pccdb.org 
 
 19 20  0  0  0  0  0  0  0  0999 V2000 
    1.9291    0.2743    1.4518 C   0  0  0  0  0  0  0  0  0  0  0  0 
    4.1074   -5.9449    0.5087 C   0  0  0  0  0  0  0  0  0  0  0  0 
    5.4580   -5.6838    0.2104 C   0  0  0  0  0  0  0  0  0  0  0  0 
    3.2144   -4.9145    0.7928 C   0  0  0  0  0  0  0  0  0  0  0  0 
    5.9597   -4.3827    0.1864 C   0  0  0  0  0  0  0  0  0  0  0  0 
    3.6969   -3.6015    0.7741 C   0  0  0  0  0  0  0  0  0  0  0  0 
    5.0580   -3.3585    0.4712 C   0  0  0  0  0  0  0  0  0  0  0  0 
    3.9440   -1.4784    0.8707 C   0  0  0  0  0  0  0  0  0  0  0  0 
    3.0297   -2.4041    1.0188 N   0  0  0  0  0  0  0  0  0  0  0  0 
    5.1873   -1.9780    0.5404 N   0  0  0  0  0  0  0  0  0  0  0  0 
    3.7132    0.2600    1.0567 S   0  0  0  0  0  0  0  0  0  0  0  0 
    1.6650    1.3227    1.6083 H   0  0  0  0  0  0  0  0  0  0  0  0 
    1.7398   -0.3050    2.3561 H   0  0  0  0  0  0  0  0  0  0  0  0 
    1.3555   -0.1423    0.6229 H   0  0  0  0  0  0  0  0  0  0  0  0 
    3.7575   -6.9734    0.5173 H   0  0  0  0  0  0  0  0  0  0  0  0 
    6.1259   -6.5130   -0.0052 H   0  0  0  0  0  0  0  0  0  0  0  0 
    2.1718   -5.1104    1.0235 H   0  0  0  0  0  0  0  0  0  0  0  0 
    7.0026   -4.1838   -0.0438 H   0  0  0  0  0  0  0  0  0  0  0  0 
    6.0262   -1.4381    0.3876 H   0  0  0  0  0  0  0  0  0  0  0  0 
  1 12  1  0  0  0  0 
  1 13  1  0  0  0  0 
  2 15  1  0  0  0  0 
  2  4  2  0  0  0  0 
  3  2  1  0  0  0  0 
  4 17  1  0  0  0  0 
  5  3  2  0  0  0  0 
  5  7  1  0  0  0  0 
  6  4  1  0  0  0  0 
  6  9  1  0  0  0  0 
  7 10  1  0  0  0  0 
  7  6  2  0  0  0  0 
  8  9  2  0  0  0  0 
  8 11  1  0  0  0  0 
 10  8  1  0  0  0  0 
 11  1  1  0  0  0  0 
 14  1  1  0  0  0  0 
 16  3  1  0  0  0  0 
 18  5  1  0  0  0  0 
 19 10  1  0  0  0  0 
M  END 
>  <HBA> 
2 
 
>  <HBD> 
1 
 
>  <TPSA> 
53.98 
 
>  <cid> 
23539 
 
>  <dipole> 
1.72 
 
>  <excitation_energy_1> 
4.646 
 
>  <excitation_energy_2> 
4.745 
 
>  <excitation_energy_3> 
5.111 
 
>  <excitation_energy_4> 
5.139 
 
>  <homo_energy> 
-5.63 
 
>  <homo_lumo_gap> 
5.38 
 
>  <logP> 
2.285 
 
>  <lumo_energy> 
-0.25 
 
>  <melting_point> 
124.25 
 
>  <molecular_refractivity> 
47.81 
 
>  <oscillator_strength_1> 
0.0016 
 
>  <oscillator_strength_2> 
0.2534 
 
>  <oscillator_strength_3> 
0.0035 
 
>  <oscillator_strength_4> 
0.0922 
 
>  <open_babel_can_smiles> 
CSc1nc2c([nH]1)cccc2 
 
>  <mulliken_charges> 
19 
1   -0.573295 
2   -0.14351 
3   -0.150226 
4   -0.175703 
5   -0.171144 
6   0.229072 
7   0.349013 
8   0.305129 
9   -0.532811 
10   -0.720079 
11   0.133904 
12   0.18055 
13   0.208939 
14   0.207229 
15   0.124957 
16   0.126004 
17   0.136494 
18   0.126794 
19   0.338683 
 
>  <lowdin_charges> 
19 
1   -0.526533 
2   -0.169653 
3   -0.164123 
4   -0.158831 
5   -0.186104 
6   0.014805 
7   0.022188 
8   -0.04021 
9   -0.220896 
10   -0.215435 
11   0.17144 
12   0.174566 
13   0.182137 
14   0.18176 
15   0.156004 
16   0.158239 
17   0.163963 
18   0.156702 
19   0.299982 
 
$$$$ 
 
