PCCDB-ID:  27260 
public computational chemistry database (PCCDB) project, http://pccdb.org 
 
 36 37  0  0  1  0  0  0  0  0999 V2000 
   -0.2542   -1.9383    0.1165 C   0  0  0  0  0  0  0  0  0  0  0  0 
    1.3266    0.0135    0.5182 C   0  0  0  0  0  0  0  0  0  0  0  0 
    2.2572   -2.2350   -0.1453 C   0  0  0  0  0  0  0  0  0  0  0  0 
    2.7213    0.4502    0.9917 C   0  0  0  0  0  0  0  0  0  0  0  0 
    3.6533   -1.7948    0.3209 C   0  0  0  0  0  0  0  0  0  0  0  0 
    6.9963    3.9524    0.2225 C   0  0  0  0  0  0  0  0  0  0  0  0 
    6.9605    3.5696   -2.1407 C   0  0  0  0  0  0  0  0  0  0  0  0 
    7.4824    5.2320   -0.0503 C   0  0  0  0  0  0  0  0  0  0  0  0 
    7.4390    4.8681   -2.3026 C   0  0  0  0  0  0  0  0  0  0  0  0 
    1.1308   -1.5106    0.6144 C   0  0  2  0  0  0  0  0  0  0  0  0 
    6.7171    3.0953   -0.8481 C   0  0  0  0  0  0  0  0  0  0  0  0 
    3.8272   -0.2748    0.2162 C   0  0  2  0  0  0  0  0  0  0  0  0 
    6.1986    1.6884   -0.7089 C   0  0  0  0  0  0  0  0  0  0  0  0 
    7.6992    5.6999   -1.2844 N   0  0  0  0  0  0  0  0  0  0  0  0 
    5.1616    0.0727    0.7632 N   0  0  0  0  0  0  0  0  0  0  0  0 
    5.5421    1.3939    0.4524 N   0  0  0  0  0  0  0  0  0  0  0  0 
    6.3480    0.8535   -1.5981 O   0  0  0  0  0  0  0  0  0  0  0  0 
   -1.0521   -1.4414    0.6813 H   0  0  0  0  0  0  0  0  0  0  0  0 
   -0.3974   -3.0209    0.2172 H   0  0  0  0  0  0  0  0  0  0  0  0 
   -0.3875   -1.6825   -0.9426 H   0  0  0  0  0  0  0  0  0  0  0  0 
    1.1794    0.3268   -0.5268 H   0  0  0  0  0  0  0  0  0  0  0  0 
    0.5558    0.5280    1.1068 H   0  0  0  0  0  0  0  0  0  0  0  0 
    2.1525   -3.3211   -0.0250 H   0  0  0  0  0  0  0  0  0  0  0  0 
    2.1513   -2.0298   -1.2212 H   0  0  0  0  0  0  0  0  0  0  0  0 
    2.8423    0.2241    2.0607 H   0  0  0  0  0  0  0  0  0  0  0  0 
    2.8342    1.5359    0.8778 H   0  0  0  0  0  0  0  0  0  0  0  0 
    4.4246   -2.3003   -0.2766 H   0  0  0  0  0  0  0  0  0  0  0  0 
    3.8114   -2.0947    1.3664 H   0  0  0  0  0  0  0  0  0  0  0  0 
    6.8739    3.6438    1.2569 H   0  0  0  0  0  0  0  0  0  0  0  0 
    6.7769    2.9214   -2.9904 H   0  0  0  0  0  0  0  0  0  0  0  0 
    7.7130    5.9125    0.7677 H   0  0  0  0  0  0  0  0  0  0  0  0 
    7.6257    5.2621   -3.2999 H   0  0  0  0  0  0  0  0  0  0  0  0 
    1.2137   -1.7892    1.6775 H   0  0  0  0  0  0  0  0  0  0  0  0 
    3.7666    0.0135   -0.8455 H   0  0  0  0  0  0  0  0  0  0  0  0 
    5.8507   -0.5220    0.2990 H   0  0  0  0  0  0  0  0  0  0  0  0 
    5.5287    2.0361    1.2302 H   0  0  0  0  0  0  0  0  0  0  0  0 
  1 19  1  0  0  0  0 
  1 10  1  0  0  0  0 
  1 18  1  0  0  0  0 
  2 10  1  0  0  0  0 
  2  4  1  0  0  0  0 
  2 22  1  0  0  0  0 
  3 23  1  0  0  0  0 
  3  5  1  0  0  0  0 
  3 10  1  0  0  0  0 
  4 25  1  0  0  0  0 
  5 28  1  0  0  0  0 
  6 29  1  0  0  0  0 
  7 11  1  0  0  0  0 
  8  6  1  0  0  0  0 
  8 31  1  0  0  0  0 
  9  7  2  0  0  0  0 
  9 14  1  0  0  0  0 
 10 33  1  1  0  0  0 
 11 13  1  0  0  0  0 
 11  6  2  0  0  0  0 
 12 34  1  6  0  0  0 
 12  5  1  0  0  0  0 
 12 15  1  0  0  0  0 
 12  4  1  0  0  0  0 
 13 16  1  0  0  0  0 
 14  8  2  0  0  0  0 
 16 15  1  0  0  0  0 
 16 36  1  0  0  0  0 
 17 13  2  0  0  0  0 
 20  1  1  0  0  0  0 
 21  2  1  0  0  0  0 
 24  3  1  0  0  0  0 
 26  4  1  0  0  0  0 
 27  5  1  0  0  0  0 
 30  7  1  0  0  0  0 
 32  9  1  0  0  0  0 
 35 15  1  0  0  0  0 
M  END 
>  <HBA> 
4 
 
>  <HBD> 
2 
 
>  <TPSA> 
54.02 
 
>  <cid> 
27260 
 
>  <dipole> 
2.58 
 
>  <excitation_energy_1> 
4.201 
 
>  <excitation_energy_2> 
4.463 
 
>  <excitation_energy_3> 
4.587 
 
>  <excitation_energy_4> 
5.03 
 
>  <homo_energy> 
-6.512 
 
>  <homo_lumo_gap> 
4.977 
 
>  <logP> 
2.676 
 
>  <lumo_energy> 
-1.535 
 
>  <melting_point> 
126.67 
 
>  <molecular_refractivity> 
66.76 
 
>  <oscillator_strength_1> 
0.0287 
 
>  <oscillator_strength_2> 
0.043 
 
>  <oscillator_strength_3> 
0.014 
 
>  <oscillator_strength_4> 
0.0339 
 
>  <open_babel_can_smiles> 
C[C@@H]1CC[C@H](CC1)NNC(=O)c1ccncc1 
 
>  <mulliken_charges> 
36 
1   -0.446398 
2   -0.262183 
3   -0.260776 
4   -0.262733 
5   -0.28942 
6   -0.192759 
7   -0.163889 
8   0.037997 
9   0.035806 
10   -0.068371 
11   0.103425 
12   0.063513 
13   0.56122 
14   -0.399837 
15   -0.445396 
16   -0.493701 
17   -0.525023 
18   0.140429 
19   0.140737 
20   0.140082 
21   0.128367 
22   0.130871 
23   0.132541 
24   0.130913 
25   0.134171 
26   0.129452 
27   0.137058 
28   0.141801 
29   0.133128 
30   0.171115 
31   0.14736 
32   0.149746 
33   0.118646 
34   0.136679 
35   0.32395 
36   0.341483 
 
>  <lowdin_charges> 
36 
1   -0.441226 
2   -0.277759 
3   -0.271914 
4   -0.281684 
5   -0.28348 
6   -0.180817 
7   -0.152939 
8   -0.087439 
9   -0.084009 
10   -0.12388 
11   -0.012945 
12   -0.068412 
13   0.152492 
14   -0.140048 
15   -0.281632 
16   -0.215514 
17   -0.311295 
18   0.149437 
19   0.146753 
20   0.144903 
21   0.137369 
22   0.145595 
23   0.143119 
24   0.13799 
25   0.140568 
26   0.140594 
27   0.147621 
28   0.144161 
29   0.158936 
30   0.184032 
31   0.161011 
32   0.16058 
33   0.132292 
34   0.133147 
35   0.267115 
36   0.287278 
 
$$$$ 
 
