PCCDB-ID:  26226 
public computational chemistry database (PCCDB) project, http://pccdb.org 
 
 36 37  0  0  1  0  0  0  0  0999 V2000 
   -2.9822    2.3641   -3.4836 C   0  0  0  0  0  0  0  0  0  0  0  0 
   -2.8092    3.6313   -2.5908 C   0  0  0  0  0  0  0  0  0  0  0  0 
   -1.8171    2.4079   -4.5033 C   0  0  0  0  0  0  0  0  0  0  0  0 
   -1.5437    4.3517   -3.1202 C   0  0  0  0  0  0  0  0  0  0  0  0 
    4.2012    4.5440   -2.6066 C   0  0  0  0  0  0  0  0  0  0  0  0 
    5.3680    4.9111   -1.9298 C   0  0  0  0  0  0  0  0  0  0  0  0 
    4.5476    2.2613   -1.9316 C   0  0  0  0  0  0  0  0  0  0  0  0 
    1.2727    3.0284   -2.3311 C   0  0  0  0  0  0  0  0  0  0  0  0 
    3.7769    3.2152   -2.6087 C   0  0  0  0  0  0  0  0  0  0  0  0 
   -0.7195    3.2441   -3.8195 C   0  0  0  0  0  0  0  0  0  0  0  0 
    6.1336    3.9620   -1.2559 C   0  0  0  0  0  0  0  0  0  0  0  0 
    5.7167    2.6163   -1.2645 C   0  0  0  0  0  0  0  0  0  0  0  0 
    2.4796    2.8151   -3.2792 C   0  0  1  0  0  0  0  0  0  0  0  0 
    0.0750    2.4027   -2.9067 N   0  0  0  0  0  0  0  0  0  0  0  0 
    7.2879    4.2585   -0.5831 O   0  0  0  0  0  0  0  0  0  0  0  0 
    6.5035    1.7145   -0.6020 O   0  0  0  0  0  0  0  0  0  0  0  0 
    2.5142    1.4514   -3.6598 O   0  0  0  0  0  0  0  0  0  0  0  0 
   -3.9551    2.3411   -3.9847 H   0  0  0  0  0  0  0  0  0  0  0  0 
   -2.9292    1.4536   -2.8750 H   0  0  0  0  0  0  0  0  0  0  0  0 
   -2.6832    3.3473   -1.5394 H   0  0  0  0  0  0  0  0  0  0  0  0 
   -3.6859    4.2854   -2.6271 H   0  0  0  0  0  0  0  0  0  0  0  0 
   -2.1378    2.9243   -5.4164 H   0  0  0  0  0  0  0  0  0  0  0  0 
   -1.4554    1.4166   -4.7930 H   0  0  0  0  0  0  0  0  0  0  0  0 
   -0.9844    4.8703   -2.3340 H   0  0  0  0  0  0  0  0  0  0  0  0 
   -1.8244    5.1086   -3.8640 H   0  0  0  0  0  0  0  0  0  0  0  0 
    3.6297    5.3017   -3.1372 H   0  0  0  0  0  0  0  0  0  0  0  0 
    5.6965    5.9495   -1.9343 H   0  0  0  0  0  0  0  0  0  0  0  0 
    4.2304    1.2216   -1.9549 H   0  0  0  0  0  0  0  0  0  0  0  0 
    1.1525    4.1011   -2.1129 H   0  0  0  0  0  0  0  0  0  0  0  0 
    1.4976    2.5231   -1.3857 H   0  0  0  0  0  0  0  0  0  0  0  0 
   -0.0218    3.6626   -4.5529 H   0  0  0  0  0  0  0  0  0  0  0  0 
    2.3386    3.4534   -4.1701 H   0  0  0  0  0  0  0  0  0  0  0  0 
   -0.5183    2.0391   -2.1654 H   0  0  0  0  0  0  0  0  0  0  0  0 
    7.4562    5.2091   -0.6736 H   0  0  0  0  0  0  0  0  0  0  0  0 
    6.1166    0.8335   -0.7230 H   0  0  0  0  0  0  0  0  0  0  0  0 
    1.5660    1.2026   -3.6876 H   0  0  0  0  0  0  0  0  0  0  0  0 
  1 19  1  0  0  0  0 
  1  2  1  0  0  0  0 
  2 20  1  0  0  0  0 
  3 10  1  0  0  0  0 
  3  1  1  0  0  0  0 
  4  2  1  0  0  0  0 
  4 24  1  0  0  0  0 
  5  6  1  0  0  0  0 
  6 11  2  0  0  0  0 
  7 12  2  0  0  0  0 
  8 29  1  0  0  0  0 
  8 30  1  0  0  0  0 
  9  5  2  0  0  0  0 
  9  7  1  0  0  0  0 
 10  4  1  0  0  0  0 
 10 14  1  0  0  0  0 
 11 15  1  0  0  0  0 
 12 11  1  0  0  0  0 
 12 16  1  0  0  0  0 
 13 32  1  6  0  0  0 
 13  9  1  0  0  0  0 
 13  8  1  0  0  0  0 
 14  8  1  0  0  0  0 
 14 33  1  0  0  0  0 
 17 13  1  0  0  0  0 
 18  1  1  0  0  0  0 
 21  2  1  0  0  0  0 
 22  3  1  0  0  0  0 
 23  3  1  0  0  0  0 
 25  4  1  0  0  0  0 
 26  5  1  0  0  0  0 
 27  6  1  0  0  0  0 
 28  7  1  0  0  0  0 
 31 10  1  0  0  0  0 
 34 15  1  0  0  0  0 
 35 16  1  0  0  0  0 
 36 17  1  0  0  0  0 
M  END 
>  <HBA> 
4 
 
>  <HBD> 
4 
 
>  <TPSA> 
72.72 
 
>  <cid> 
26226 
 
>  <dipole> 
4.11 
 
>  <excitation_energy_1> 
4.758 
 
>  <excitation_energy_2> 
4.819 
 
>  <excitation_energy_3> 
5.043 
 
>  <excitation_energy_4> 
5.113 
 
>  <homo_energy> 
-5.323 
 
>  <homo_lumo_gap> 
5.693 
 
>  <logP> 
2.054 
 
>  <lumo_energy> 
0.37 
 
>  <melting_point> 
153.49 
 
>  <molecular_refractivity> 
66.15 
 
>  <oscillator_strength_1> 
0.0053 
 
>  <oscillator_strength_2> 
0.0573 
 
>  <oscillator_strength_3> 
0.0012 
 
>  <oscillator_strength_4> 
0.0009 
 
>  <open_babel_can_smiles> 
O[C@H](c1ccc(c(c1)O)O)CNC1CCCC1 
 
>  <mulliken_charges> 
36 
1   -0.283284 
2   -0.280752 
3   -0.269817 
4   -0.278498 
5   -0.195412 
6   -0.201368 
7   -0.254298 
8   -0.155349 
9   0.135695 
10   0.020365 
11   0.319424 
12   0.327038 
13   0.091559 
14   -0.593143 
15   -0.634699 
16   -0.636939 
17   -0.653639 
18   0.14329 
19   0.138045 
20   0.135314 
21   0.143668 
22   0.139441 
23   0.145617 
24   0.140979 
25   0.138086 
26   0.115355 
27   0.11443 
28   0.138369 
29   0.131164 
30   0.14492 
31   0.137138 
32   0.11492 
33   0.307609 
34   0.404937 
35   0.407331 
36   0.402505 
 
>  <lowdin_charges> 
36 
1   -0.290998 
2   -0.290301 
3   -0.286923 
4   -0.301919 
5   -0.184301 
6   -0.206731 
7   -0.20711 
8   -0.224299 
9   -0.019431 
10   -0.072233 
11   0.075586 
12   0.077466 
13   -0.004922 
14   -0.360889 
15   -0.370936 
16   -0.371302 
17   -0.471369 
18   0.149227 
19   0.142601 
20   0.139984 
21   0.150286 
22   0.14766 
23   0.151156 
24   0.148094 
25   0.147115 
26   0.154152 
27   0.150793 
28   0.164206 
29   0.132541 
30   0.151076 
31   0.145615 
32   0.126149 
33   0.261386 
34   0.354682 
35   0.35785 
36   0.336037 
 
$$$$ 
 
