PCCDB-ID:  16356 
public computational chemistry database (PCCDB) project, http://pccdb.org 
 
 20 21  0  0  0  0  0  0  0  0999 V2000 
    1.0658    0.0601    0.0355 C   0  0  0  0  0  0  0  0  0  0  0  0 
    0.9120    4.4420   -1.4756 C   0  0  0  0  0  0  0  0  0  0  0  0 
    2.0042    5.2680   -1.7507 C   0  0  0  0  0  0  0  0  0  0  0  0 
    1.1119    3.1324   -1.0246 C   0  0  0  0  0  0  0  0  0  0  0  0 
    3.3184    4.8148   -1.5849 C   0  0  0  0  0  0  0  0  0  0  0  0 
    2.4133    2.6570   -0.8506 C   0  0  0  0  0  0  0  0  0  0  0  0 
    3.5044    3.5139   -1.1357 C   0  0  0  0  0  0  0  0  0  0  0  0 
    2.9835    1.3700   -0.4012 C   0  0  0  0  0  0  0  0  0  0  0  0 
    4.5094    1.5468   -0.4485 C   0  0  0  0  0  0  0  0  0  0  0  0 
    2.5051    0.2523   -0.0176 N   0  0  0  0  0  0  0  0  0  0  0  0 
    4.7074    2.8488   -0.8962 N   0  0  0  0  0  0  0  0  0  0  0  0 
    5.3774    0.7513   -0.1662 O   0  0  0  0  0  0  0  0  0  0  0  0 
    0.8532   -0.9560    0.3779 H   0  0  0  0  0  0  0  0  0  0  0  0 
    0.5999    0.1949   -0.9512 H   0  0  0  0  0  0  0  0  0  0  0  0 
    0.5881    0.7643    0.7320 H   0  0  0  0  0  0  0  0  0  0  0  0 
   -0.0979    4.8165   -1.6111 H   0  0  0  0  0  0  0  0  0  0  0  0 
    1.8360    6.2828   -2.1005 H   0  0  0  0  0  0  0  0  0  0  0  0 
    0.2564    2.5013   -0.8157 H   0  0  0  0  0  0  0  0  0  0  0  0 
    4.1642    5.4613   -1.8005 H   0  0  0  0  0  0  0  0  0  0  0  0 
    5.6289    3.2426   -1.0221 H   0  0  0  0  0  0  0  0  0  0  0  0 
  1 13  1  0  0  0  0 
  1 15  1  0  0  0  0 
  2  4  2  0  0  0  0 
  3  5  2  0  0  0  0 
  3  2  1  0  0  0  0 
  4  6  1  0  0  0  0 
  4 18  1  0  0  0  0 
  5  7  1  0  0  0  0 
  6  8  1  0  0  0  0 
  7 11  1  0  0  0  0 
  7  6  2  0  0  0  0 
  8 10  2  0  0  0  0 
  9  8  1  0  0  0  0 
  9 12  2  0  0  0  0 
 10  1  1  0  0  0  0 
 11  9  1  0  0  0  0 
 14  1  1  0  0  0  0 
 16  2  1  0  0  0  0 
 17  3  1  0  0  0  0 
 19  5  1  0  0  0  0 
 20 11  1  0  0  0  0 
M  END 
>  <HBA> 
3 
 
>  <HBD> 
1 
 
>  <TPSA> 
41.46 
 
>  <cid> 
16356 
 
>  <dipole> 
4.97 
 
>  <excitation_energy_1> 
3.334 
 
>  <excitation_energy_2> 
3.344 
 
>  <excitation_energy_3> 
4.043 
 
>  <excitation_energy_4> 
4.529 
 
>  <homo_energy> 
-6.147 
 
>  <homo_lumo_gap> 
4.071 
 
>  <logP> 
-1.0 
 
>  <lumo_energy> 
-2.076 
 
>  <melting_point> 
119.92 
 
>  <molecular_refractivity> 
47.63 
 
>  <oscillator_strength_1> 
0.0004 
 
>  <oscillator_strength_2> 
0.0372 
 
>  <oscillator_strength_3> 
0.0 
 
>  <oscillator_strength_4> 
0.0688 
 
>  <open_babel_can_smiles> 
C/N=C\1/C(=O)Nc2c1cccc2 
 
>  <mulliken_charges> 
20 
1   -0.341136 
2   -0.141333 
3   -0.130947 
4   -0.194955 
5   -0.176136 
6   0.127494 
7   0.329433 
8   0.158366 
9   0.612279 
10   -0.41286 
11   -0.74605 
12   -0.466771 
13   0.170871 
14   0.16078 
15   0.161138 
16   0.135361 
17   0.1408 
18   0.141994 
19   0.137597 
20   0.334076 
 
>  <lowdin_charges> 
20 
1   -0.364464 
2   -0.176665 
3   -0.127464 
4   -0.139992 
5   -0.194308 
6   -0.063277 
7   0.069443 
8   0.009308 
9   0.164884 
10   -0.114692 
11   -0.245734 
12   -0.239225 
13   0.159305 
14   0.154068 
15   0.156057 
16   0.161469 
17   0.162962 
18   0.167328 
19   0.164218 
20   0.296781 
 
$$$$ 
 
