PCCDB-ID:  62374 
public computational chemistry database (PCCDB) project, http://pccdb.org 
 
 23 23  0  0  0  0  0  0  0  0999 V2000 
    0.8574   -0.0209   -0.0058 C   0  0  0  0  0  0  0  0  0  0  0  0 
    4.7607   -1.7459   -1.3859 C   0  0  0  0  0  0  0  0  0  0  0  0 
    5.2181   -2.3679    1.0129 C   0  0  0  0  0  0  0  0  0  0  0  0 
    3.0501    1.1500   -0.3670 C   0  0  0  0  0  0  0  0  0  0  0  0 
    5.2536    0.0655    0.3196 C   0  0  0  0  0  0  0  0  0  0  0  0 
    2.3571    0.0427   -0.0241 C   0  0  0  0  0  0  0  0  0  0  0  0 
    4.5279    1.2273   -0.3374 C   0  0  0  0  0  0  0  0  0  0  0  0 
    3.0780   -1.2185    0.3602 C   0  0  0  0  0  0  0  0  0  0  0  0 
    4.5888   -1.3112    0.0929 C   0  0  0  0  0  0  0  0  0  0  0  0 
    5.1152    2.2054   -0.7745 O   0  0  0  0  0  0  0  0  0  0  0  0 
    2.4450   -2.1596    0.8141 O   0  0  0  0  0  0  0  0  0  0  0  0 
    0.4143    0.9442   -0.2653 H   0  0  0  0  0  0  0  0  0  0  0  0 
    0.5029   -0.3266    0.9846 H   0  0  0  0  0  0  0  0  0  0  0  0 
    0.4926   -0.7813   -0.7064 H   0  0  0  0  0  0  0  0  0  0  0  0 
    5.8269   -1.8440   -1.6195 H   0  0  0  0  0  0  0  0  0  0  0  0 
    4.3278   -1.0206   -2.0832 H   0  0  0  0  0  0  0  0  0  0  0  0 
    4.2823   -2.7155   -1.5596 H   0  0  0  0  0  0  0  0  0  0  0  0 
    6.2900   -2.4584    0.8039 H   0  0  0  0  0  0  0  0  0  0  0  0 
    4.7476   -3.3428    0.8634 H   0  0  0  0  0  0  0  0  0  0  0  0 
    5.0964   -2.0989    2.0680 H   0  0  0  0  0  0  0  0  0  0  0  0 
    2.5414    2.0580   -0.6850 H   0  0  0  0  0  0  0  0  0  0  0  0 
    5.2782    0.2803    1.3988 H   0  0  0  0  0  0  0  0  0  0  0  0 
    6.2923    0.0638   -0.0261 H   0  0  0  0  0  0  0  0  0  0  0  0 
  1 13  1  0  0  0  0 
  2  9  1  0  0  0  0 
  3 20  1  0  0  0  0 
  4  7  1  0  0  0  0 
  4  6  2  0  0  0  0 
  5 22  1  0  0  0  0 
  6  1  1  0  0  0  0 
  6  8  1  0  0  0  0 
  7  5  1  0  0  0  0 
  8 11  2  0  0  0  0 
  9  5  1  0  0  0  0 
  9  8  1  0  0  0  0 
  9  3  1  0  0  0  0 
 10  7  2  0  0  0  0 
 12  1  1  0  0  0  0 
 14  1  1  0  0  0  0 
 15  2  1  0  0  0  0 
 16  2  1  0  0  0  0 
 17  2  1  0  0  0  0 
 18  3  1  0  0  0  0 
 19  3  1  0  0  0  0 
 21  4  1  0  0  0  0 
 23  5  1  0  0  0  0 
M  END 
>  <HBA> 
2 
 
>  <HBD> 
0 
 
>  <TPSA> 
34.14 
 
>  <cid> 
62374 
 
>  <dipole> 
0.94 
 
>  <excitation_energy_1> 
3.09 
 
>  <excitation_energy_2> 
3.266 
 
>  <excitation_energy_3> 
5.118 
 
>  <excitation_energy_4> 
5.291 
 
>  <homo_energy> 
-6.814 
 
>  <homo_lumo_gap> 
4.373 
 
>  <logP> 
1.501 
 
>  <lumo_energy> 
-2.441 
 
>  <melting_point> 
68.7 
 
>  <molecular_refractivity> 
42.93 
 
>  <oscillator_strength_1> 
0.0003 
 
>  <oscillator_strength_2> 
0.0002 
 
>  <oscillator_strength_3> 
0.2972 
 
>  <oscillator_strength_4> 
0.001 
 
>  <open_babel_can_smiles> 
O=C1C=C(C)C(=O)C(C1)(C)C 
 
>  <mulliken_charges> 
23 
1   -0.51066 
2   -0.454997 
3   -0.443692 
4   -0.226954 
5   -0.367507 
6   0.12383 
7   0.445479 
8   0.410753 
9   -0.014187 
10   -0.464166 
11   -0.459495 
12   0.159129 
13   0.186851 
14   0.178684 
15   0.159168 
16   0.155551 
17   0.164902 
18   0.142398 
19   0.169727 
20   0.147807 
21   0.156028 
22   0.172311 
23   0.169039 
 
>  <lowdin_charges> 
23 
1   -0.436616 
2   -0.438593 
3   -0.434307 
4   -0.175871 
5   -0.299501 
6   -0.003053 
7   0.147773 
8   0.151906 
9   -0.015415 
10   -0.232101 
11   -0.227389 
12   0.160326 
13   0.178032 
14   0.174581 
15   0.157154 
16   0.156489 
17   0.160523 
18   0.149427 
19   0.164583 
20   0.152061 
21   0.173903 
22   0.16917 
23   0.166916 
 
$$$$ 
 
