PCCDB-ID:  38387 
public computational chemistry database (PCCDB) project, http://pccdb.org 
 
 25 24  0  0  1  0  0  0  0  0999 V2000 
    3.3920    2.1787    0.7615 C   0  0  0  0  0  0  0  0  0  0  0  0 
    1.6984    0.5280   -0.1593 C   0  0  0  0  0  0  0  0  0  0  0  0 
    4.9231   -1.1179   -3.7165 C   0  0  0  0  0  0  0  0  0  0  0  0 
    5.1392    1.4108   -3.2706 C   0  0  0  0  0  0  0  0  0  0  0  0 
    4.9252    1.2931   -1.7627 C   0  0  0  0  0  0  0  0  0  0  0  0 
    3.1608    0.9603   -0.1360 C   0  0  0  0  0  0  0  0  0  0  0  0 
    4.4960    0.2982   -4.1230 C   0  0  2  0  0  0  0  0  0  0  0  0 
    3.0776    0.4200   -4.1459 O   0  0  0  0  0  0  0  0  0  0  0  0 
    3.5240    1.2355   -1.4966 O   0  0  0  0  0  0  0  0  0  0  0  0 
    3.0957    1.9551    1.7926 H   0  0  0  0  0  0  0  0  0  0  0  0 
    2.7965    3.0274    0.4065 H   0  0  0  0  0  0  0  0  0  0  0  0 
    4.4447    2.4795    0.7770 H   0  0  0  0  0  0  0  0  0  0  0  0 
    1.3519    0.2804    0.8497 H   0  0  0  0  0  0  0  0  0  0  0  0 
    1.5660   -0.3514   -0.7976 H   0  0  0  0  0  0  0  0  0  0  0  0 
    1.0717    1.3370   -0.5510 H   0  0  0  0  0  0  0  0  0  0  0  0 
    6.0141   -1.2363   -3.7444 H   0  0  0  0  0  0  0  0  0  0  0  0 
    4.4788   -1.8449   -4.4034 H   0  0  0  0  0  0  0  0  0  0  0  0 
    4.5784   -1.3663   -2.7056 H   0  0  0  0  0  0  0  0  0  0  0  0 
    6.2229    1.4323   -3.4511 H   0  0  0  0  0  0  0  0  0  0  0  0 
    4.7350    2.3711   -3.6130 H   0  0  0  0  0  0  0  0  0  0  0  0 
    5.3805    2.1603   -1.2617 H   0  0  0  0  0  0  0  0  0  0  0  0 
    5.4115    0.3904   -1.3592 H   0  0  0  0  0  0  0  0  0  0  0  0 
    3.7819    0.1230    0.2241 H   0  0  0  0  0  0  0  0  0  0  0  0 
    4.8137    0.4617   -5.1614 H   0  0  0  0  0  0  0  0  0  0  0  0 
    2.8119    0.5626   -3.2196 H   0  0  0  0  0  0  0  0  0  0  0  0 
  1 12  1  0  0  0  0 
  1 10  1  0  0  0  0 
  2  6  1  0  0  0  0 
  2 13  1  0  0  0  0 
  3 18  1  0  0  0  0 
  4  5  1  0  0  0  0 
  5  9  1  0  0  0  0 
  5 22  1  0  0  0  0 
  5 21  1  0  0  0  0 
  6 23  1  0  0  0  0 
  6  1  1  0  0  0  0 
  7 24  1  6  0  0  0 
  7  3  1  0  0  0  0 
  7  4  1  0  0  0  0 
  8  7  1  0  0  0  0 
  8 25  1  0  0  0  0 
  9  6  1  0  0  0  0 
 11  1  1  0  0  0  0 
 14  2  1  0  0  0  0 
 15  2  1  0  0  0  0 
 16  3  1  0  0  0  0 
 17  3  1  0  0  0  0 
 19  4  1  0  0  0  0 
 20  4  1  0  0  0  0 
M  END 
>  <HBA> 
2 
 
>  <HBD> 
1 
 
>  <TPSA> 
29.46 
 
>  <cid> 
38387 
 
>  <dipole> 
3.2 
 
>  <excitation_energy_1> 
6.373 
 
>  <excitation_energy_2> 
6.577 
 
>  <excitation_energy_3> 
6.728 
 
>  <excitation_energy_4> 
6.932 
 
>  <homo_energy> 
-6.615 
 
>  <homo_lumo_gap> 
8.476 
 
>  <logP> 
1.182 
 
>  <lumo_energy> 
1.861 
 
>  <melting_point> 
-17.56 
 
>  <molecular_refractivity> 
38.01 
 
>  <oscillator_strength_1> 
0.0132 
 
>  <oscillator_strength_2> 
0.0129 
 
>  <oscillator_strength_3> 
0.0037 
 
>  <oscillator_strength_4> 
0.0081 
 
>  <open_babel_can_smiles> 
C[C@H](CCOC(C)C)O 
 
>  <mulliken_charges> 
25 
1   -0.45763 
2   -0.457451 
3   -0.45487 
4   -0.306531 
5   -0.021621 
6   0.162427 
7   0.151599 
8   -0.650379 
9   -0.501166 
10   0.146242 
11   0.156548 
12   0.149424 
13   0.14631 
14   0.157623 
15   0.158529 
16   0.129142 
17   0.156336 
18   0.138657 
19   0.132445 
20   0.156163 
21   0.12985 
22   0.126196 
23   0.115725 
24   0.126615 
25   0.409816 
 
>  <lowdin_charges> 
25 
1   -0.457263 
2   -0.450594 
3   -0.46183 
4   -0.300012 
5   -0.133542 
6   0.010065 
7   0.005133 
8   -0.48255 
9   -0.283293 
10   0.154716 
11   0.157442 
12   0.151349 
13   0.15488 
14   0.158069 
15   0.158584 
16   0.142886 
17   0.1598 
18   0.145038 
19   0.149163 
20   0.156224 
21   0.134522 
22   0.129447 
23   0.126969 
24   0.137385 
25   0.337411 
 
$$$$ 
 
