PCCDB-ID:  44594 
public computational chemistry database (PCCDB) project, http://pccdb.org 
 
 28 29  0  0  1  0  0  0  0  0999 V2000 
    1.1264    1.4139   -0.2126 C   0  0  0  0  0  0  0  0  0  0  0  0 
    6.7924    2.2546    1.6069 C   0  0  0  0  0  0  0  0  0  0  0  0 
    7.2090    0.9205    1.5984 C   0  0  0  0  0  0  0  0  0  0  0  0 
    5.4867    2.5810    1.2428 C   0  0  0  0  0  0  0  0  0  0  0  0 
    6.3129   -0.0875    1.2446 C   0  0  0  0  0  0  0  0  0  0  0  0 
    2.0011   -1.5948   -0.0811 C   0  0  0  0  0  0  0  0  0  0  0  0 
    2.2249   -2.9271    0.6450 C   0  0  0  0  0  0  0  0  0  0  0  0 
    2.5626    0.9145   -0.1660 C   0  0  2  0  0  0  0  0  0  0  0  0 
    2.7483   -0.4274    0.5560 C   0  0  2  0  0  0  0  0  0  0  0  0 
    4.5904    1.5758    0.8774 C   0  0  0  0  0  0  0  0  0  0  0  0 
    5.0029    0.2351    0.8900 C   0  0  0  0  0  0  0  0  0  0  0  0 
    1.4544   -3.9792    0.0736 O   0  0  0  0  0  0  0  0  0  0  0  0 
    3.3141    1.9303    0.5195 O   0  0  0  0  0  0  0  0  0  0  0  0 
    4.1421   -0.7801    0.5501 O   0  0  0  0  0  0  0  0  0  0  0  0 
    0.5101    0.7894   -0.8654 H   0  0  0  0  0  0  0  0  0  0  0  0 
    1.1122    2.4365   -0.6007 H   0  0  0  0  0  0  0  0  0  0  0  0 
    0.6834    1.4238    0.7895 H   0  0  0  0  0  0  0  0  0  0  0  0 
    7.4840    3.0434    1.8880 H   0  0  0  0  0  0  0  0  0  0  0  0 
    8.2267    0.6614    1.8753 H   0  0  0  0  0  0  0  0  0  0  0  0 
    5.1402    3.6099    1.2278 H   0  0  0  0  0  0  0  0  0  0  0  0 
    6.6050   -1.1334    1.2422 H   0  0  0  0  0  0  0  0  0  0  0  0 
    0.9261   -1.3851   -0.0823 H   0  0  0  0  0  0  0  0  0  0  0  0 
    2.3187   -1.6902   -1.1295 H   0  0  0  0  0  0  0  0  0  0  0  0 
    1.8863   -2.8461    1.6839 H   0  0  0  0  0  0  0  0  0  0  0  0 
    3.2941   -3.1743    0.6661 H   0  0  0  0  0  0  0  0  0  0  0  0 
    2.9668    0.8122   -1.1848 H   0  0  0  0  0  0  0  0  0  0  0  0 
    2.4267   -0.2957    1.6016 H   0  0  0  0  0  0  0  0  0  0  0  0 
    1.8357   -4.1820   -0.7945 H   0  0  0  0  0  0  0  0  0  0  0  0 
  1  8  1  0  0  0  0 
  1 17  1  0  0  0  0 
  2 18  1  0  0  0  0 
  3  2  1  0  0  0  0 
  3 19  1  0  0  0  0 
  4  2  2  0  0  0  0 
  5  3  2  0  0  0  0 
  6  9  1  0  0  0  0 
  6  7  1  0  0  0  0 
  7 25  1  0  0  0  0 
  7 24  1  0  0  0  0 
  8 26  1  6  0  0  0 
  8 13  1  0  0  0  0 
  8  9  1  0  0  0  0 
  9 27  1  1  0  0  0 
 10 11  2  0  0  0  0 
 10  4  1  0  0  0  0 
 11  5  1  0  0  0  0 
 12  7  1  0  0  0  0 
 13 10  1  0  0  0  0 
 14  9  1  0  0  0  0 
 14 11  1  0  0  0  0 
 15  1  1  0  0  0  0 
 16  1  1  0  0  0  0 
 20  4  1  0  0  0  0 
 21  5  1  0  0  0  0 
 22  6  1  0  0  0  0 
 23  6  1  0  0  0  0 
 28 12  1  0  0  0  0 
M  END 
>  <HBA> 
3 
 
>  <HBD> 
1 
 
>  <TPSA> 
38.69 
 
>  <cid> 
44594 
 
>  <dipole> 
1.36 
 
>  <excitation_energy_1> 
4.89 
 
>  <excitation_energy_2> 
5.281 
 
>  <excitation_energy_3> 
5.486 
 
>  <excitation_energy_4> 
5.565 
 
>  <homo_energy> 
-5.66 
 
>  <homo_lumo_gap> 
5.831 
 
>  <logP> 
1.597 
 
>  <lumo_energy> 
0.171 
 
>  <melting_point> 
53.73 
 
>  <molecular_refractivity> 
52.89 
 
>  <oscillator_strength_1> 
0.0515 
 
>  <oscillator_strength_2> 
0.0101 
 
>  <oscillator_strength_3> 
0.0014 
 
>  <oscillator_strength_4> 
0.007 
 
>  <open_babel_can_smiles> 
OCC[C@H]1Oc2ccccc2O[C@@H]1C 
 
>  <mulliken_charges> 
28 
1   -0.472233 
2   -0.137493 
3   -0.138586 
4   -0.193213 
5   -0.192936 
6   -0.307384 
7   -0.036532 
8   0.131821 
9   0.11819 
10   0.334447 
11   0.334141 
12   -0.61523 
13   -0.54471 
14   -0.551089 
15   0.156303 
16   0.170791 
17   0.159566 
18   0.127108 
19   0.126989 
20   0.137136 
21   0.135465 
22   0.158071 
23   0.135093 
24   0.146481 
25   0.14909 
26   0.14037 
27   0.140001 
28   0.388343 
 
>  <lowdin_charges> 
28 
1   -0.448572 
2   -0.167548 
3   -0.165996 
4   -0.176757 
5   -0.176126 
6   -0.297431 
7   -0.132712 
8   -0.002233 
9   -0.004487 
10   0.062703 
11   0.058311 
12   -0.465672 
13   -0.208833 
14   -0.213087 
15   0.160732 
16   0.167293 
17   0.158223 
18   0.159217 
19   0.157076 
20   0.165397 
21   0.164073 
22   0.157291 
23   0.143581 
24   0.145559 
25   0.138083 
26   0.140266 
27   0.140203 
28   0.341447 
 
$$$$ 
 
