PCCDB-ID:  29718 
public computational chemistry database (PCCDB) project, http://pccdb.org 
 
 27 27  0  0  1  0  0  0  0  0999 V2000 
    2.0332    1.0823    2.4867 C   0  0  0  0  0  0  0  0  0  0  0  0 
    7.2227   -5.3696    2.8403 C   0  0  0  0  0  0  0  0  0  0  0  0 
    2.2171   -0.2961    1.8436 C   0  0  0  0  0  0  0  0  0  0  0  0 
    3.3899   -1.0839    2.4407 C   0  0  0  0  0  0  0  0  0  0  0  0 
    3.5813   -2.4589    1.7870 C   0  0  0  0  0  0  0  0  0  0  0  0 
    5.1328   -4.5349    1.5725 C   0  0  0  0  0  0  0  0  0  0  0  0 
    5.7137   -5.4716    2.6495 C   0  0  2  0  0  0  0  0  0  0  0  0 
    4.7496   -3.2752    2.3633 C   0  0  2  0  0  0  0  0  0  0  0  0 
    4.4833   -3.8385    3.7634 C   0  0  0  0  0  0  0  0  0  0  0  0 
    3.8827   -3.3289    4.6763 O   0  0  0  0  0  0  0  0  0  0  0  0 
    5.0430   -5.0761    3.8761 O   0  0  0  0  0  0  0  0  0  0  0  0 
    1.1867    1.6203    2.0449 H   0  0  0  0  0  0  0  0  0  0  0  0 
    2.9279    1.7035    2.3555 H   0  0  0  0  0  0  0  0  0  0  0  0 
    1.8479    0.9935    3.5638 H   0  0  0  0  0  0  0  0  0  0  0  0 
    7.7427   -5.7674    1.9613 H   0  0  0  0  0  0  0  0  0  0  0  0 
    7.5355   -5.9448    3.7170 H   0  0  0  0  0  0  0  0  0  0  0  0 
    7.5371   -4.3295    2.9838 H   0  0  0  0  0  0  0  0  0  0  0  0 
    2.3676   -0.1780    0.7604 H   0  0  0  0  0  0  0  0  0  0  0  0 
    1.2929   -0.8796    1.9609 H   0  0  0  0  0  0  0  0  0  0  0  0 
    3.2396   -1.2182    3.5174 H   0  0  0  0  0  0  0  0  0  0  0  0 
    4.3151   -0.4988    2.3239 H   0  0  0  0  0  0  0  0  0  0  0  0 
    3.7560   -2.3278    0.7096 H   0  0  0  0  0  0  0  0  0  0  0  0 
    2.6573   -3.0462    1.8807 H   0  0  0  0  0  0  0  0  0  0  0  0 
    4.2339   -4.9809    1.1297 H   0  0  0  0  0  0  0  0  0  0  0  0 
    5.8432   -4.3416    0.7632 H   0  0  0  0  0  0  0  0  0  0  0  0 
    5.4317   -6.5152    2.4805 H   0  0  0  0  0  0  0  0  0  0  0  0 
    5.6263   -2.6168    2.4593 H   0  0  0  0  0  0  0  0  0  0  0  0 
  1 14  1  0  0  0  0 
  2 17  1  0  0  0  0 
  2 16  1  0  0  0  0 
  3 19  1  0  0  0  0 
  3  4  1  0  0  0  0 
  3  1  1  0  0  0  0 
  4 20  1  0  0  0  0 
  5 23  1  0  0  0  0 
  5  8  1  0  0  0  0 
  5  4  1  0  0  0  0 
  6  8  1  0  0  0  0 
  6  7  1  0  0  0  0 
  7 26  1  6  0  0  0 
  7  2  1  0  0  0  0 
  7 11  1  0  0  0  0 
  8 27  1  1  0  0  0 
  8  9  1  0  0  0  0 
  9 11  1  0  0  0  0 
  9 10  2  0  0  0  0 
 12  1  1  0  0  0  0 
 13  1  1  0  0  0  0 
 15  2  1  0  0  0  0 
 18  3  1  0  0  0  0 
 21  4  1  0  0  0  0 
 22  5  1  0  0  0  0 
 24  6  1  0  0  0  0 
 25  6  1  0  0  0  0 
M  END 
>  <HBA> 
2 
 
>  <HBD> 
0 
 
>  <TPSA> 
26.3 
 
>  <cid> 
29718 
 
>  <dipole> 
4.22 
 
>  <excitation_energy_1> 
5.532 
 
>  <excitation_energy_2> 
6.633 
 
>  <excitation_energy_3> 
6.965 
 
>  <excitation_energy_4> 
7.105 
 
>  <homo_energy> 
-7.042 
 
>  <homo_lumo_gap> 
7.404 
 
>  <logP> 
2.128 
 
>  <lumo_energy> 
0.362 
 
>  <melting_point> 
6.46 
 
>  <molecular_refractivity> 
44.55 
 
>  <oscillator_strength_1> 
0.0004 
 
>  <oscillator_strength_2> 
0.0022 
 
>  <oscillator_strength_3> 
0.0059 
 
>  <oscillator_strength_4> 
0.0093 
 
>  <open_babel_can_smiles> 
CCCC[C@@H]1C[C@H](OC1=O)C 
 
>  <mulliken_charges> 
27 
1   -0.441942 
2   -0.455088 
3   -0.248887 
4   -0.263204 
5   -0.258828 
6   -0.313072 
7   0.127157 
8   -0.208296 
9   0.625061 
10   -0.461163 
11   -0.457287 
12   0.1407 
13   0.139677 
14   0.14798 
15   0.150341 
16   0.170925 
17   0.153133 
18   0.124799 
19   0.133397 
20   0.175474 
21   0.120117 
22   0.133477 
23   0.141037 
24   0.156085 
25   0.153108 
26   0.150324 
27   0.164975 
 
>  <lowdin_charges> 
27 
1   -0.443359 
2   -0.454429 
3   -0.269772 
4   -0.280559 
5   -0.264873 
6   -0.293142 
7   0.009143 
8   -0.16422 
9   0.19281 
10   -0.242182 
11   -0.191052 
12   0.149671 
13   0.145819 
14   0.147953 
15   0.157923 
16   0.166333 
17   0.15333 
18   0.133391 
19   0.140401 
20   0.159261 
21   0.134574 
22   0.140697 
23   0.146693 
24   0.155501 
25   0.157632 
26   0.149099 
27   0.163354 
 
$$$$ 
 
