PCCDB-ID:  41423 
public computational chemistry database (PCCDB) project, http://pccdb.org 
 
 35 37  0  0  0  0  0  0  0  0999 V2000 
    2.4865   -1.3727   -0.1062 C   0  0  0  0  0  0  0  0  0  0  0  0 
    3.0731    7.9192   -1.8633 C   0  0  0  0  0  0  0  0  0  0  0  0 
    3.4681    6.4954   -2.1780 C   0  0  0  0  0  0  0  0  0  0  0  0 
    3.8244   -0.2456    2.1187 C   0  0  0  0  0  0  0  0  0  0  0  0 
    4.4736    0.3436    3.2019 C   0  0  0  0  0  0  0  0  0  0  0  0 
    3.1776    5.1183    2.2308 C   0  0  0  0  0  0  0  0  0  0  0  0 
    3.9338    5.5541    0.9640 C   0  0  0  0  0  0  0  0  0  0  0  0 
    3.0099    1.9243    1.3523 C   0  0  0  0  0  0  0  0  0  0  0  0 
    4.5287    3.8680    4.0287 C   0  0  0  0  0  0  0  0  0  0  0  0 
    3.7634    3.9025    2.8894 C   0  0  0  0  0  0  0  0  0  0  0  0 
    3.9067    7.1351   -0.8841 C   0  0  0  0  0  0  0  0  0  0  0  0 
    3.0957    0.5414    1.1998 C   0  0  0  0  0  0  0  0  0  0  0  0 
    3.6575    2.5346    2.4355 C   0  0  0  0  0  0  0  0  0  0  0  0 
    4.3864    1.7265    3.3523 C   0  0  0  0  0  0  0  0  0  0  0  0 
    3.2663    6.6895    0.3261 N   0  0  0  0  0  0  0  0  0  0  0  0 
    4.9120    2.5710    4.3134 N   0  0  0  0  0  0  0  0  0  0  0  0 
    2.4314    0.0233    0.1133 O   0  0  0  0  0  0  0  0  0  0  0  0 
    1.9060   -1.5575   -1.0127 H   0  0  0  0  0  0  0  0  0  0  0  0 
    2.0413   -1.9364    0.7258 H   0  0  0  0  0  0  0  0  0  0  0  0 
    3.5167   -1.7226   -0.2622 H   0  0  0  0  0  0  0  0  0  0  0  0 
    2.0380    8.0983   -1.5881 H   0  0  0  0  0  0  0  0  0  0  0  0 
    3.5467    8.7269   -2.4148 H   0  0  0  0  0  0  0  0  0  0  0  0 
    4.2146    6.3193   -2.9476 H   0  0  0  0  0  0  0  0  0  0  0  0 
    2.6931    5.7379   -2.1085 H   0  0  0  0  0  0  0  0  0  0  0  0 
    3.8856   -1.3202    1.9941 H   0  0  0  0  0  0  0  0  0  0  0  0 
    5.0303   -0.2700    3.9056 H   0  0  0  0  0  0  0  0  0  0  0  0 
    2.1301    4.9392    1.9550 H   0  0  0  0  0  0  0  0  0  0  0  0 
    3.1698    5.9530    2.9464 H   0  0  0  0  0  0  0  0  0  0  0  0 
    3.9518    4.7292    0.2424 H   0  0  0  0  0  0  0  0  0  0  0  0 
    4.9889    5.7625    1.2253 H   0  0  0  0  0  0  0  0  0  0  0  0 
    2.4387    2.4964    0.6277 H   0  0  0  0  0  0  0  0  0  0  0  0 
    4.8347    4.6824    4.6723 H   0  0  0  0  0  0  0  0  0  0  0  0 
    4.9676    7.4066   -0.8219 H   0  0  0  0  0  0  0  0  0  0  0  0 
    3.2156    7.4658    0.9860 H   0  0  0  0  0  0  0  0  0  0  0  0 
    5.4523    2.2846    5.1138 H   0  0  0  0  0  0  0  0  0  0  0  0 
  1 17  1  0  0  0  0 
  1 19  1  0  0  0  0 
  2 21  1  0  0  0  0 
  2 11  1  0  0  0  0 
  3 24  1  0  0  0  0 
  3  2  1  0  0  0  0 
  3 11  1  0  0  0  0 
  4  5  2  0  0  0  0 
  5 14  1  0  0  0  0 
  5 26  1  0  0  0  0 
  6 10  1  0  0  0  0 
  6 28  1  0  0  0  0 
  7 30  1  0  0  0  0 
  7  6  1  0  0  0  0 
  8 13  1  0  0  0  0 
  9 16  1  0  0  0  0 
  9 32  1  0  0  0  0 
 10  9  2  0  0  0  0 
 11 33  1  0  0  0  0 
 11 15  1  0  0  0  0 
 12  8  2  0  0  0  0 
 12  4  1  0  0  0  0 
 13 10  1  0  0  0  0 
 13 14  2  0  0  0  0 
 14 16  1  0  0  0  0 
 15  7  1  0  0  0  0 
 15 34  1  0  0  0  0 
 16 35  1  0  0  0  0 
 17 12  1  0  0  0  0 
 18  1  1  0  0  0  0 
 20  1  1  0  0  0  0 
 22  2  1  0  0  0  0 
 23  3  1  0  0  0  0 
 25  4  1  0  0  0  0 
 27  6  1  0  0  0  0 
 29  7  1  0  0  0  0 
 31  8  1  0  0  0  0 
M  END 
>  <HBA> 
2 
 
>  <HBD> 
2 
 
>  <TPSA> 
37.05 
 
>  <cid> 
41423 
 
>  <dipole> 
3.13 
 
>  <excitation_energy_1> 
4.269 
 
>  <excitation_energy_2> 
4.493 
 
>  <excitation_energy_3> 
4.665 
 
>  <excitation_energy_4> 
4.894 
 
>  <homo_energy> 
-5.029 
 
>  <homo_lumo_gap> 
4.944 
 
>  <logP> 
2.862 
 
>  <lumo_energy> 
-0.084 
 
>  <melting_point> 
152.97 
 
>  <molecular_refractivity> 
69.67 
 
>  <oscillator_strength_1> 
0.0681 
 
>  <oscillator_strength_2> 
0.0 
 
>  <oscillator_strength_3> 
0.084 
 
>  <oscillator_strength_4> 
0.0047 
 
>  <open_babel_can_smiles> 
COc1ccc2c(c1)c(CCNC1CC1)c[nH]2 
 
>  <mulliken_charges> 
35 
1   -0.208581 
2   -0.322949 
3   -0.30158 
4   -0.217703 
5   -0.172844 
6   -0.354351 
7   -0.109758 
8   -0.276606 
9   -0.003771 
10   0.072073 
11   0.031454 
12   0.376664 
13   0.086354 
14   0.31733 
15   -0.563555 
16   -0.697046 
17   -0.516258 
18   0.164118 
19   0.145176 
20   0.145165 
21   0.15699 
22   0.144399 
23   0.145227 
24   0.159561 
25   0.124423 
26   0.120508 
27   0.155543 
28   0.126265 
29   0.153981 
30   0.110168 
31   0.134578 
32   0.142407 
33   0.118687 
34   0.29054 
35   0.323392 
 
>  <lowdin_charges> 
35 
1   -0.277527 
2   -0.319785 
3   -0.319623 
4   -0.214597 
5   -0.181114 
6   -0.270938 
7   -0.19879 
8   -0.196149 
9   -0.136501 
10   -0.063861 
11   -0.094127 
12   0.089406 
13   -0.024618 
14   0.01907 
15   -0.351309 
16   -0.206351 
17   -0.210153 
18   0.159819 
19   0.141714 
20   0.139828 
21   0.16195 
22   0.156726 
23   0.156546 
24   0.164816 
25   0.158577 
26   0.156327 
27   0.154367 
28   0.14281 
29   0.149458 
30   0.115472 
31   0.167222 
32   0.162655 
33   0.126501 
34   0.252048 
35   0.290133 
 
$$$$ 
 
