PCCDB-ID:  58598 
public computational chemistry database (PCCDB) project, http://pccdb.org 
 
 37 38  0  0  1  0  0  0  0  0999 V2000 
    5.0253    3.2133   -7.1496 C   0  0  0  0  0  0  0  0  0  0  0  0 
    3.7309    2.9183   -6.3854 C   0  0  0  0  0  0  0  0  0  0  0  0 
    5.1824   -1.1062    2.1178 C   0  0  0  0  0  0  0  0  0  0  0  0 
    4.6497    0.3568    1.9635 C   0  0  0  0  0  0  0  0  0  0  0  0 
    3.8763    1.8546   -5.2927 C   0  0  0  0  0  0  0  0  0  0  0  0 
    7.0295    0.3509    1.6558 C   0  0  0  0  0  0  0  0  0  0  0  0 
    6.2000   -0.9478   -0.1711 C   0  0  0  0  0  0  0  0  0  0  0  0 
    4.9726    1.3134   -3.1461 C   0  0  0  0  0  0  0  0  0  0  0  0 
    6.5170   -1.0709    1.3369 C   0  0  2  0  0  0  0  0  0  0  0  0 
    5.7572    1.0522    1.1374 C   0  0  1  0  0  0  0  0  0  0  0  0 
    5.6790    0.5290   -0.3232 C   0  0  1  0  0  0  0  0  0  0  0  0 
    6.2525    1.6330   -2.3577 C   0  0  0  0  0  0  0  0  0  0  0  0 
    4.7965    2.2857   -4.2320 N   0  0  0  0  0  0  0  0  0  0  0  0 
    6.5641    1.2993   -1.1753 N   0  0  0  0  0  0  0  0  0  0  0  0 
    7.1496    2.3298   -3.0975 O   0  0  0  0  0  0  0  0  0  0  0  0 
    4.8584    3.9670   -7.9269 H   0  0  0  0  0  0  0  0  0  0  0  0 
    5.4073    2.3084   -7.6378 H   0  0  0  0  0  0  0  0  0  0  0  0 
    5.8076    3.5849   -6.4807 H   0  0  0  0  0  0  0  0  0  0  0  0 
    2.9554    2.5778   -7.0837 H   0  0  0  0  0  0  0  0  0  0  0  0 
    3.3432    3.8444   -5.9353 H   0  0  0  0  0  0  0  0  0  0  0  0 
    4.4890   -1.8552    1.7181 H   0  0  0  0  0  0  0  0  0  0  0  0 
    5.3547   -1.3533    3.1719 H   0  0  0  0  0  0  0  0  0  0  0  0 
    4.5363    0.8412    2.9397 H   0  0  0  0  0  0  0  0  0  0  0  0 
    3.6723    0.4001    1.4678 H   0  0  0  0  0  0  0  0  0  0  0  0 
    4.2863    0.9329   -5.7266 H   0  0  0  0  0  0  0  0  0  0  0  0 
    2.8790    1.6009   -4.8914 H   0  0  0  0  0  0  0  0  0  0  0  0 
    7.9219    0.6314    1.0886 H   0  0  0  0  0  0  0  0  0  0  0  0 
    7.2107    0.5172    2.7247 H   0  0  0  0  0  0  0  0  0  0  0  0 
    5.4621   -1.6863   -0.5071 H   0  0  0  0  0  0  0  0  0  0  0  0 
    7.1036   -1.0726   -0.7761 H   0  0  0  0  0  0  0  0  0  0  0  0 
    4.1044    1.2473   -2.4772 H   0  0  0  0  0  0  0  0  0  0  0  0 
    5.0936    0.3231   -3.6046 H   0  0  0  0  0  0  0  0  0  0  0  0 
    7.1937   -1.8969    1.5766 H   0  0  0  0  0  0  0  0  0  0  0  0 
    5.7453    2.1441    1.1924 H   0  0  0  0  0  0  0  0  0  0  0  0 
    4.6317    0.5344   -0.6640 H   0  0  0  0  0  0  0  0  0  0  0  0 
    4.4571    3.1638   -3.8381 H   0  0  0  0  0  0  0  0  0  0  0  0 
    6.6822    2.5264   -3.9418 H   0  0  0  0  0  0  0  0  0  0  0  0 
  1 18  1  0  0  0  0 
  1  2  1  0  0  0  0 
  2 20  1  0  0  0  0 
  2  5  1  0  0  0  0 
  3 22  1  0  0  0  0 
  4  3  1  0  0  0  0 
  4 23  1  0  0  0  0 
  5 26  1  0  0  0  0 
  5 13  1  0  0  0  0 
  6 28  1  0  0  0  0 
  7  9  1  0  0  0  0 
  8 31  1  0  0  0  0 
  8 12  1  0  0  0  0 
  9 33  1  1  0  0  0 
  9  6  1  0  0  0  0 
  9  3  1  0  0  0  0 
 10 34  1  1  0  0  0 
 10  6  1  0  0  0  0 
 10  4  1  0  0  0  0 
 11 35  1  6  0  0  0 
 11  7  1  0  0  0  0 
 11 10  1  0  0  0  0 
 12 14  2  0  0  0  0 
 13 36  1  0  0  0  0 
 13  8  1  0  0  0  0 
 14 11  1  0  0  0  0 
 15 12  1  0  0  0  0 
 16  1  1  0  0  0  0 
 17  1  1  0  0  0  0 
 19  2  1  0  0  0  0 
 21  3  1  0  0  0  0 
 24  4  1  0  0  0  0 
 25  5  1  0  0  0  0 
 27  6  1  0  0  0  0 
 29  7  1  0  0  0  0 
 30  7  1  0  0  0  0 
 32  8  1  0  0  0  0 
 37 15  1  0  0  0  0 
M  END 
>  <HBA> 
3 
 
>  <HBD> 
2 
 
>  <TPSA> 
41.13 
 
>  <cid> 
58598 
 
>  <dipole> 
4.74 
 
>  <excitation_energy_1> 
5.38 
 
>  <excitation_energy_2> 
5.63 
 
>  <excitation_energy_3> 
5.702 
 
>  <excitation_energy_4> 
5.954 
 
>  <homo_energy> 
-6.172 
 
>  <homo_lumo_gap> 
7.08 
 
>  <logP> 
2.073 
 
>  <lumo_energy> 
0.909 
 
>  <melting_point> 
90.36 
 
>  <molecular_refractivity> 
61.37 
 
>  <oscillator_strength_1> 
0.0 
 
>  <oscillator_strength_2> 
0.0129 
 
>  <oscillator_strength_3> 
0.0039 
 
>  <oscillator_strength_4> 
0.0036 
 
>  <open_babel_can_smiles> 
CCCNC/C(=N\[C@H]1C[C@H]2C[C@@H]1CC2)/O 
 
>  <mulliken_charges> 
37 
1   -0.43718 
2   -0.270537 
3   -0.268312 
4   -0.27552 
5   -0.110414 
6   -0.273816 
7   -0.275042 
8   -0.212456 
9   -0.102519 
10   -0.088506 
11   0.015111 
12   0.474848 
13   -0.606678 
14   -0.43432 
15   -0.601073 
16   0.147517 
17   0.144978 
18   0.156598 
19   0.143475 
20   0.133551 
21   0.126025 
22   0.131733 
23   0.134032 
24   0.123748 
25   0.147575 
26   0.12521 
27   0.158727 
28   0.123654 
29   0.121136 
30   0.149836 
31   0.159585 
32   0.177542 
33   0.112753 
34   0.117438 
35   0.097164 
36   0.313428 
37   0.420709 
 
>  <lowdin_charges> 
37 
1   -0.447548 
2   -0.279346 
3   -0.286519 
4   -0.287013 
5   -0.200266 
6   -0.284761 
7   -0.292809 
8   -0.242118 
9   -0.134019 
10   -0.13406 
11   -0.067848 
12   0.106533 
13   -0.360101 
14   -0.207045 
15   -0.375858 
16   0.153314 
17   0.149598 
18   0.15394 
19   0.150928 
20   0.140863 
21   0.140027 
22   0.141008 
23   0.1443 
24   0.136869 
25   0.145636 
26   0.126604 
27   0.157112 
28   0.137951 
29   0.139036 
30   0.153906 
31   0.149159 
32   0.165963 
33   0.140138 
34   0.141355 
35   0.11434 
36   0.262082 
37   0.348649 
 
$$$$ 
 
