PCCDB-ID:  35306 
public computational chemistry database (PCCDB) project, http://pccdb.org 
 
 38 38  0  0  0  0  0  0  0  0999 V2000 
    0.9030    0.2913    0.6053 C   0  0  0  0  0  0  0  0  0  0  0  0 
    8.8476   -0.5862    3.3228 C   0  0  0  0  0  0  0  0  0  0  0  0 
    9.1296   -2.0456    1.2709 C   0  0  0  0  0  0  0  0  0  0  0  0 
    8.8771    4.2269    0.1488 C   0  0  0  0  0  0  0  0  0  0  0  0 
    8.2035    5.6474    2.1375 C   0  0  0  0  0  0  0  0  0  0  0  0 
    2.3736    0.0180    0.8553 C   0  0  0  0  0  0  0  0  0  0  0  0 
    8.5300   -0.7473    1.8252 C   0  0  0  0  0  0  0  0  0  0  0  0 
    8.0975    4.2695    1.4742 C   0  0  0  0  0  0  0  0  0  0  0  0 
    6.4096    0.2835    1.4502 C   0  0  0  0  0  0  0  0  0  0  0  0 
    6.2613    2.7752    1.2472 C   0  0  0  0  0  0  0  0  0  0  0  0 
    4.3726    1.2805    1.0544 C   0  0  0  0  0  0  0  0  0  0  0  0 
    7.0897   -0.7845    1.6150 N   0  0  0  0  0  0  0  0  0  0  0  0 
    6.6855    3.9781    1.2453 N   0  0  0  0  0  0  0  0  0  0  0  0 
    6.9597    1.5947    1.4536 N   0  0  0  0  0  0  0  0  0  0  0  0 
    5.0346    0.1943    1.2488 N   0  0  0  0  0  0  0  0  0  0  0  0 
    4.9024    2.5433    1.0219 N   0  0  0  0  0  0  0  0  0  0  0  0 
    3.0508    1.2995    0.8511 O   0  0  0  0  0  0  0  0  0  0  0  0 
    0.3508   -0.6545    0.6005 H   0  0  0  0  0  0  0  0  0  0  0  0 
    0.7529    0.7825   -0.3614 H   0  0  0  0  0  0  0  0  0  0  0  0 
    0.4832    0.9311    1.3882 H   0  0  0  0  0  0  0  0  0  0  0  0 
    9.9296   -0.6067    3.4985 H   0  0  0  0  0  0  0  0  0  0  0  0 
    8.3879   -1.4037    3.8885 H   0  0  0  0  0  0  0  0  0  0  0  0 
    8.4543    0.3570    3.7203 H   0  0  0  0  0  0  0  0  0  0  0  0 
   10.2187   -2.0619    1.3968 H   0  0  0  0  0  0  0  0  0  0  0  0 
    8.9004   -2.1494    0.2054 H   0  0  0  0  0  0  0  0  0  0  0  0 
    8.7014   -2.9084    1.7925 H   0  0  0  0  0  0  0  0  0  0  0  0 
    9.9324    4.4788    0.3068 H   0  0  0  0  0  0  0  0  0  0  0  0 
    8.4509    4.9468   -0.5584 H   0  0  0  0  0  0  0  0  0  0  0  0 
    8.8288    3.2343   -0.3139 H   0  0  0  0  0  0  0  0  0  0  0  0 
    9.2494    5.9080    2.3366 H   0  0  0  0  0  0  0  0  0  0  0  0 
    7.6550    5.6622    3.0849 H   0  0  0  0  0  0  0  0  0  0  0  0 
    7.7699    6.4131    1.4847 H   0  0  0  0  0  0  0  0  0  0  0  0 
    2.8177   -0.6143    0.0811 H   0  0  0  0  0  0  0  0  0  0  0  0 
    2.5490   -0.4667    1.8200 H   0  0  0  0  0  0  0  0  0  0  0  0 
    9.0144    0.0851    1.2762 H   0  0  0  0  0  0  0  0  0  0  0  0 
    8.5568    3.5414    2.1699 H   0  0  0  0  0  0  0  0  0  0  0  0 
    7.9525    1.6811    1.6072 H   0  0  0  0  0  0  0  0  0  0  0  0 
    4.3129    3.3540    0.8919 H   0  0  0  0  0  0  0  0  0  0  0  0 
  1  6  1  0  0  0  0 
  1 20  1  0  0  0  0 
  2 21  1  0  0  0  0 
  2 23  1  0  0  0  0 
  2 22  1  0  0  0  0 
  3 24  1  0  0  0  0 
  3 26  1  0  0  0  0 
  3  7  1  0  0  0  0 
  4 27  1  0  0  0  0 
  4  8  1  0  0  0  0 
  5 30  1  0  0  0  0 
  5 31  1  0  0  0  0 
  6 34  1  0  0  0  0 
  7  2  1  0  0  0  0 
  8  5  1  0  0  0  0 
  8 36  1  0  0  0  0 
  9 14  1  0  0  0  0 
  9 12  1  0  0  0  0 
 10 14  1  0  0  0  0 
 11 15  2  0  0  0  0 
 12  7  1  0  0  0  0 
 13 10  2  0  0  0  0 
 13  8  1  0  0  0  0 
 14 37  1  0  0  0  0 
 15  9  2  0  0  0  0 
 16 11  1  0  0  0  0 
 16 10  1  0  0  0  0 
 17  6  1  0  0  0  0 
 17 11  1  0  0  0  0 
 18  1  1  0  0  0  0 
 19  1  1  0  0  0  0 
 25  3  1  0  0  0  0 
 28  4  1  0  0  0  0 
 29  4  1  0  0  0  0 
 32  5  1  0  0  0  0 
 33  6  1  0  0  0  0 
 35  7  1  0  0  0  0 
 38 16  1  0  0  0  0 
M  RAD  1  12   2 
M  END 
>  <HBA> 
6 
 
>  <HBD> 
2 
 
>  <TPSA> 
71.96 
 
>  <cid> 
35306 
 
>  <dipole> 
1.6 
 
>  <excitation_energy_1> 
5.248 
 
>  <excitation_energy_2> 
5.328 
 
>  <excitation_energy_3> 
5.364 
 
>  <excitation_energy_4> 
5.458 
 
>  <homo_energy> 
-6.036 
 
>  <homo_lumo_gap> 
6.038 
 
>  <logP> 
2.057 
 
>  <lumo_energy> 
0.003 
 
>  <melting_point> 
122.73 
 
>  <molecular_refractivity> 
68.97 
 
>  <oscillator_strength_1> 
0.002 
 
>  <oscillator_strength_2> 
0.0085 
 
>  <oscillator_strength_3> 
0.0894 
 
>  <oscillator_strength_4> 
0.0628 
 
>  <open_babel_can_smiles> 
CCOC1=[N]=C(N/C(=N\C(C)C)/N1)[N]C(C)C 
 
>  <mulliken_charges> 
38 
1   -0.462717 
2   -0.436387 
3   -0.426614 
4   -0.435632 
5   -0.4289 
6   -0.028263 
7   0.008322 
8   0.011777 
9   0.652576 
10   0.752568 
11   0.776604 
12   -0.457152 
13   -0.498557 
14   -0.746597 
15   -0.540688 
16   -0.70101 
17   -0.503994 
18   0.157721 
19   0.162563 
20   0.162381 
21   0.138912 
22   0.16085 
23   0.134961 
24   0.128417 
25   0.148012 
26   0.153213 
27   0.141521 
28   0.15718 
29   0.138732 
30   0.13365 
31   0.147539 
32   0.150796 
33   0.171515 
34   0.170943 
35   0.092122 
36   0.101819 
37   0.356449 
38   0.355366 
 
>  <lowdin_charges> 
38 
1   -0.449931 
2   -0.450112 
3   -0.439563 
4   -0.449903 
5   -0.442486 
6   -0.116241 
7   -0.06028 
8   -0.055847 
9   0.129197 
10   0.137242 
11   0.183253 
12   -0.224529 
13   -0.26447 
14   -0.27739 
15   -0.232969 
16   -0.231697 
17   -0.188929 
18   0.162367 
19   0.159089 
20   0.1603 
21   0.146846 
22   0.159423 
23   0.144197 
24   0.14088 
25   0.152133 
26   0.155867 
27   0.148696 
28   0.157655 
29   0.145657 
30   0.144616 
31   0.153134 
32   0.154872 
33   0.159984 
34   0.158219 
35   0.110103 
36   0.115844 
37   0.292703 
38   0.312068 
 
$$$$ 
 
