PCCDB-ID:  25478 
public computational chemistry database (PCCDB) project, http://pccdb.org 
 
 28 29  0  0  1  0  0  0  0  0999 V2000 
    0.9950   -0.0737    0.1737 C   0  0  0  0  0  0  0  0  0  0  0  0 
    3.0404   -0.0102    1.5544 C   0  0  0  0  0  0  0  0  0  0  0  0 
    2.8751    2.6103   -0.3534 C   0  0  0  0  0  0  0  0  0  0  0  0 
    2.6557   -0.7553   -2.2170 C   0  0  0  0  0  0  0  0  0  0  0  0 
    4.6691   -0.7627   -0.7698 C   0  0  0  0  0  0  0  0  0  0  0  0 
    3.1685   -1.1217   -0.8032 C   0  0  1  0  0  0  0  0  0  0  0  0 
    2.6930    0.8064   -2.2322 C   0  0  2  0  0  0  0  0  0  0  0  0 
    4.6157    0.7749   -0.7508 C   0  0  0  0  0  0  0  0  0  0  0  0 
    2.5321   -0.0104    0.0982 C   0  0  0  0  0  0  0  0  0  0  0  0 
    3.1279    1.1699   -0.7573 C   0  0  1  0  0  0  0  0  0  0  0  0 
    1.4937    1.4285   -2.6663 O   0  0  0  0  0  0  0  0  0  0  0  0 
    5.5625    1.5306   -0.7507 O   0  0  0  0  0  0  0  0  0  0  0  0 
    0.6889   -0.8863    0.8438 H   0  0  0  0  0  0  0  0  0  0  0  0 
    0.5035   -0.2690   -0.7836 H   0  0  0  0  0  0  0  0  0  0  0  0 
    0.5846    0.8555    0.5865 H   0  0  0  0  0  0  0  0  0  0  0  0 
    2.8170   -0.9691    2.0381 H   0  0  0  0  0  0  0  0  0  0  0  0 
    2.5371    0.7723    2.1338 H   0  0  0  0  0  0  0  0  0  0  0  0 
    4.1159    0.1675    1.6471 H   0  0  0  0  0  0  0  0  0  0  0  0 
    3.5178    3.2790   -0.9351 H   0  0  0  0  0  0  0  0  0  0  0  0 
    3.1093    2.7725    0.7042 H   0  0  0  0  0  0  0  0  0  0  0  0 
    1.8362    2.9020   -0.5324 H   0  0  0  0  0  0  0  0  0  0  0  0 
    1.6332   -1.1027   -2.3952 H   0  0  0  0  0  0  0  0  0  0  0  0 
    3.2759   -1.1932   -3.0062 H   0  0  0  0  0  0  0  0  0  0  0  0 
    5.2310   -1.1202   -1.6400 H   0  0  0  0  0  0  0  0  0  0  0  0 
    5.1898   -1.1300    0.1210 H   0  0  0  0  0  0  0  0  0  0  0  0 
    2.9458   -2.1492   -0.4988 H   0  0  0  0  0  0  0  0  0  0  0  0 
    3.4392    1.1833   -2.9382 H   0  0  0  0  0  0  0  0  0  0  0  0 
    0.7732    1.1524   -2.0804 H   0  0  0  0  0  0  0  0  0  0  0  0 
  1 15  1  0  0  0  0 
  1 13  1  0  0  0  0 
  2 18  1  0  0  0  0 
  2 16  1  0  0  0  0 
  2 17  1  0  0  0  0 
  3 20  1  0  0  0  0 
  4  6  1  0  0  0  0 
  5  8  1  0  0  0  0 
  5 25  1  0  0  0  0 
  6  5  1  0  0  0  0 
  6 26  1  1  0  0  0 
  6  9  1  0  0  0  0 
  7 27  1  6  0  0  0 
  7  4  1  0  0  0  0 
  7 10  1  0  0  0  0 
  8 12  2  0  0  0  0 
  9  1  1  0  0  0  0 
  9  2  1  0  0  0  0 
 10  8  1  0  0  0  0 
 10  3  1  1  0  0  0 
 10  9  1  0  0  0  0 
 11  7  1  0  0  0  0 
 11 28  1  0  0  0  0 
 14  1  1  0  0  0  0 
 19  3  1  0  0  0  0 
 21  3  1  0  0  0  0 
 22  4  1  0  0  0  0 
 23  4  1  0  0  0  0 
 24  5  1  0  0  0  0 
M  END 
>  <HBA> 
2 
 
>  <HBD> 
1 
 
>  <TPSA> 
37.3 
 
>  <cid> 
25478 
 
>  <dipole> 
3.81 
 
>  <excitation_energy_1> 
4.158 
 
>  <excitation_energy_2> 
5.885 
 
>  <excitation_energy_3> 
5.908 
 
>  <excitation_energy_4> 
6.208 
 
>  <homo_energy> 
-6.368 
 
>  <homo_lumo_gap> 
5.921 
 
>  <logP> 
1.373 
 
>  <lumo_energy> 
-0.446 
 
>  <melting_point> 
93.32 
 
>  <molecular_refractivity> 
46.8 
 
>  <oscillator_strength_1> 
0.0004 
 
>  <oscillator_strength_2> 
0.021 
 
>  <oscillator_strength_3> 
0.0245 
 
>  <oscillator_strength_4> 
0.008 
 
>  <open_babel_can_smiles> 
O[C@@H]1C[C@@H]2C([C@@]1(C)C(=O)C2)(C)C 
 
>  <mulliken_charges> 
28 
1   -0.488316 
2   -0.47423 
3   -0.469558 
4   -0.308065 
5   -0.358031 
6   -0.116215 
7   0.136583 
8   0.436417 
9   0.086968 
10   -0.014524 
11   -0.631172 
12   -0.458396 
13   0.153788 
14   0.130729 
15   0.156569 
16   0.145982 
17   0.152744 
18   0.158317 
19   0.169189 
20   0.146862 
21   0.141849 
22   0.145324 
23   0.146165 
24   0.167036 
25   0.173852 
26   0.122421 
27   0.152065 
28   0.395647 
 
>  <lowdin_charges> 
28 
1   -0.453898 
2   -0.447516 
3   -0.44053 
4   -0.302961 
5   -0.318565 
6   -0.134759 
7   -0.004554 
8   0.154526 
9   0.003987 
10   -0.050636 
11   -0.447599 
12   -0.226606 
13   0.157842 
14   0.142366 
15   0.156009 
16   0.151904 
17   0.156276 
18   0.154793 
19   0.16932 
20   0.152654 
21   0.150733 
22   0.149705 
23   0.153065 
24   0.167527 
25   0.170556 
26   0.143389 
27   0.153582 
28   0.339391 
 
$$$$ 
 
