PCCDB-ID:  45283 
public computational chemistry database (PCCDB) project, http://pccdb.org 
 
 28 29  0  0  1  0  0  0  0  0999 V2000 
    0.8694    0.1417   -0.0117 C   0  0  0  0  0  0  0  0  0  0  0  0 
    4.4010   -0.4576    1.3558 C   0  0  0  0  0  0  0  0  0  0  0  0 
    2.9110   -0.8360    1.2538 C   0  0  0  0  0  0  0  0  0  0  0  0 
    4.4246    1.0739    1.1372 C   0  0  0  0  0  0  0  0  0  0  0  0 
    3.7697    4.5321   -0.1654 C   0  0  0  0  0  0  0  0  0  0  0  0 
    1.6880    3.2974    0.7015 C   0  0  0  0  0  0  0  0  0  0  0  0 
    2.3866    0.0921    0.1471 C   0  0  2  0  0  0  0  0  0  0  0  0 
    2.6407    3.5468   -0.4682 C   0  0  2  0  0  0  0  0  0  0  0  0 
    3.0661    1.4457    0.4802 C   0  0  1  0  0  0  0  0  0  0  0  0 
    4.7493    4.5065   -1.1864 O   0  0  0  0  0  0  0  0  0  0  0  0 
    2.3094    2.2278    1.4069 O   0  0  0  0  0  0  0  0  0  0  0  0 
    3.1936    2.2423   -0.7051 O   0  0  0  0  0  0  0  0  0  0  0  0 
    0.4729   -0.8550   -0.2361 H   0  0  0  0  0  0  0  0  0  0  0  0 
    0.5760    0.8044   -0.8339 H   0  0  0  0  0  0  0  0  0  0  0  0 
    0.3934    0.4976    0.9080 H   0  0  0  0  0  0  0  0  0  0  0  0 
    4.9617   -0.9645    0.5606 H   0  0  0  0  0  0  0  0  0  0  0  0 
    4.8547   -0.7531    2.3071 H   0  0  0  0  0  0  0  0  0  0  0  0 
    2.3929   -0.6119    2.1963 H   0  0  0  0  0  0  0  0  0  0  0  0 
    2.7502   -1.8966    1.0313 H   0  0  0  0  0  0  0  0  0  0  0  0 
    5.2502    1.3961    0.4961 H   0  0  0  0  0  0  0  0  0  0  0  0 
    4.5062    1.6161    2.0841 H   0  0  0  0  0  0  0  0  0  0  0  0 
    4.2024    4.2964    0.8217 H   0  0  0  0  0  0  0  0  0  0  0  0 
    3.3765    5.5545   -0.1239 H   0  0  0  0  0  0  0  0  0  0  0  0 
    0.6856    3.0180    0.3514 H   0  0  0  0  0  0  0  0  0  0  0  0 
    1.6003    4.1465    1.3876 H   0  0  0  0  0  0  0  0  0  0  0  0 
    2.8356   -0.2293   -0.8044 H   0  0  0  0  0  0  0  0  0  0  0  0 
    2.1245    3.8479   -1.3860 H   0  0  0  0  0  0  0  0  0  0  0  0 
    4.9299    3.5640   -1.3447 H   0  0  0  0  0  0  0  0  0  0  0  0 
  1  7  1  0  0  0  0 
  1 15  1  0  0  0  0 
  2 17  1  0  0  0  0 
  3  2  1  0  0  0  0 
  3 18  1  0  0  0  0 
  4  2  1  0  0  0  0 
  4 21  1  0  0  0  0 
  5 23  1  0  0  0  0 
  5 22  1  0  0  0  0 
  6 25  1  0  0  0  0 
  6 11  1  0  0  0  0 
  7 26  1  6  0  0  0 
  7  9  1  0  0  0  0 
  7  3  1  0  0  0  0 
  8 27  1  6  0  0  0 
  8  5  1  0  0  0  0 
  8  6  1  0  0  0  0 
  9 12  1  6  0  0  0 
  9  4  1  0  0  0  0 
  9 11  1  0  0  0  0 
 10  5  1  0  0  0  0 
 12  8  1  0  0  0  0 
 13  1  1  0  0  0  0 
 14  1  1  0  0  0  0 
 16  2  1  0  0  0  0 
 19  3  1  0  0  0  0 
 20  4  1  0  0  0  0 
 24  6  1  0  0  0  0 
 28 10  1  0  0  0  0 
M  END 
>  <HBA> 
3 
 
>  <HBD> 
1 
 
>  <TPSA> 
38.69 
 
>  <cid> 
45283 
 
>  <dipole> 
1.72 
 
>  <excitation_energy_1> 
6.289 
 
>  <excitation_energy_2> 
6.475 
 
>  <excitation_energy_3> 
6.538 
 
>  <excitation_energy_4> 
6.673 
 
>  <homo_energy> 
-6.759 
 
>  <homo_lumo_gap> 
8.713 
 
>  <logP> 
0.91 
 
>  <lumo_energy> 
1.954 
 
>  <melting_point> 
28.34 
 
>  <molecular_refractivity> 
44.52 
 
>  <oscillator_strength_1> 
0.0045 
 
>  <oscillator_strength_2> 
0.0094 
 
>  <oscillator_strength_3> 
0.0018 
 
>  <oscillator_strength_4> 
0.003 
 
>  <open_babel_can_smiles> 
OC[C@@H]1CO[C@@]2(O1)CCC[C@H]2C 
 
>  <mulliken_charges> 
28 
1   -0.463886 
2   -0.27965 
3   -0.276844 
4   -0.313733 
5   -0.02797 
6   -0.057095 
7   -0.095449 
8   0.085889 
9   0.567739 
10   -0.624311 
11   -0.520002 
12   -0.554137 
13   0.144407 
14   0.145027 
15   0.156412 
16   0.13861 
17   0.139375 
18   0.144143 
19   0.135613 
20   0.146282 
21   0.161209 
22   0.128879 
23   0.14008 
24   0.141963 
25   0.153437 
26   0.135469 
27   0.14812 
28   0.400419 
 
>  <lowdin_charges> 
28 
1   -0.447112 
2   -0.282305 
3   -0.28109 
4   -0.304846 
5   -0.149041 
6   -0.142349 
7   -0.14337 
8   -0.030644 
9   0.213832 
10   -0.463717 
11   -0.265288 
12   -0.273874 
13   0.152179 
14   0.150778 
15   0.154469 
16   0.144652 
17   0.148648 
18   0.145908 
19   0.144937 
20   0.154578 
21   0.160411 
22   0.130744 
23   0.146701 
24   0.13961 
25   0.154911 
26   0.148126 
27   0.152333 
28   0.340821 
 
$$$$ 
 
