PCCDB-ID:  37854 
public computational chemistry database (PCCDB) project, http://pccdb.org 
 
 15 15  0  0  1  0  0  0  0  0999 V2000 
    1.0319    0.2467    0.0072 C   0  0  0  0  0  0  0  0  0  0  0  0 
    2.5137    0.0470    0.0844 C   0  0  0  0  0  0  0  0  0  0  0  0 
    3.2651   -1.1685   -0.0062 C   0  0  2  0  0  0  0  0  0  0  0  0 
    2.8675   -2.5898   -0.1477 C   0  0  0  0  0  0  0  0  0  0  0  0 
    3.5887   -3.6077    0.0680 N   0  0  0  0  0  0  0  0  0  0  0  0 
    3.3041    1.0748    0.2669 N   0  0  0  0  0  0  0  0  0  0  0  0 
    4.5516   -0.8234    0.1463 N   0  0  0  0  0  0  0  0  0  0  0  0 
    1.5586   -2.7846   -0.4918 O   0  0  0  0  0  0  0  0  0  0  0  0 
    5.6053   -1.4417    0.1825 O   0  0  0  0  0  0  0  0  0  0  0  0 
    4.5908    0.6070    0.3091 O   0  0  0  0  0  0  0  0  0  0  0  0 
    0.5040   -0.4407    0.6750 H   0  0  0  0  0  0  0  0  0  0  0  0 
    0.6558    0.0957   -1.0133 H   0  0  0  0  0  0  0  0  0  0  0  0 
    0.7958    1.2740    0.2939 H   0  0  0  0  0  0  0  0  0  0  0  0 
    4.5282   -3.3375    0.3629 H   0  0  0  0  0  0  0  0  0  0  0  0 
    1.2213   -2.0241   -0.9881 H   0  0  0  0  0  0  0  0  0  0  0  0 
  1  2  1  0  0  0  0 
  1 13  1  0  0  0  0 
  1 11  1  0  0  0  0 
  2  6  2  0  0  0  0 
  3  4  1  1  0  0  0 
  3  2  1  0  0  0  0 
  3  7  1  0  0  0  0 
  4  5  2  0  0  0  0 
  5 14  1  0  0  0  0 
  6 10  1  0  0  0  0 
  7  9  1  0  0  0  0 
  7 10  1  0  0  0  0 
  8  4  1  0  0  0  0 
 12  1  1  0  0  0  0 
 15  8  1  0  0  0  0 
M  RAD  2   3   2   9   2 
M  END 
>  <HBA> 
5 
 
>  <HBD> 
1 
 
>  <TPSA> 
94.58 
 
>  <cid> 
37854 
 
>  <dipole> 
4.28 
 
>  <excitation_energy_1> 
4.389 
 
>  <excitation_energy_2> 
4.68 
 
>  <excitation_energy_3> 
4.79 
 
>  <excitation_energy_4> 
5.015 
 
>  <homo_energy> 
-7.257 
 
>  <homo_lumo_gap> 
4.912 
 
>  <logP> 
0.211 
 
>  <lumo_energy> 
-2.346 
 
>  <melting_point> 
128.2 
 
>  <molecular_refractivity> 
30.73 
 
>  <oscillator_strength_1> 
0.0014 
 
>  <oscillator_strength_2> 
0.0509 
 
>  <oscillator_strength_3> 
0.0008 
 
>  <oscillator_strength_4> 
0.0323 
 
>  <open_babel_can_smiles> 
OC(=N)[C]1N([O])ON=C1C 
 
>  <mulliken_charges> 
15 
1   -0.559292 
2   0.263648 
3   0.246281 
4   0.491185 
5   -0.582398 
6   -0.169243 
7   0.243962 
8   -0.5936 
9   -0.441358 
10   -0.227467 
11   0.203609 
12   0.178358 
13   0.20742 
14   0.325894 
15   0.413002 
 
>  <lowdin_charges> 
15 
1   -0.448051 
2   0.016339 
3   -0.076147 
4   0.125696 
5   -0.35349 
6   -0.04785 
7   0.279434 
8   -0.364562 
9   -0.244892 
10   -0.061175 
11   0.184495 
12   0.168907 
13   0.189582 
14   0.27437 
15   0.357345 
 
$$$$ 
 
