PCCDB-ID:  39539 
public computational chemistry database (PCCDB) project, http://pccdb.org 
 
 16 16  0  0  0  0  0  0  0  0999 V2000 
    0.8534   -0.0676    0.0564 C   0  0  0  0  0  0  0  0  0  0  0  0 
    5.8205    1.3796    0.0783 C   0  0  0  0  0  0  0  0  0  0  0  0 
    3.2199    1.0561    0.0666 C   0  0  0  0  0  0  0  0  0  0  0  0 
    3.1805   -1.1917    0.0691 C   0  0  0  0  0  0  0  0  0  0  0  0 
    2.3580   -0.0834    0.0647 C   0  0  0  0  0  0  0  0  0  0  0  0 
    4.5307    0.6221    0.0722 C   0  0  0  0  0  0  0  0  0  0  0  0 
    4.4883   -0.7547    0.0752 N   0  0  0  0  0  0  0  0  0  0  0  0 
    0.4777    0.9609    0.0733 H   0  0  0  0  0  0  0  0  0  0  0  0 
    0.4284   -0.5834    0.9270 H   0  0  0  0  0  0  0  0  0  0  0  0 
    0.4382   -0.5505   -0.8375 H   0  0  0  0  0  0  0  0  0  0  0  0 
    5.6194    2.4547    0.0709 H   0  0  0  0  0  0  0  0  0  0  0  0 
    6.4415    1.1558   -0.8004 H   0  0  0  0  0  0  0  0  0  0  0  0 
    6.4276    1.1653    0.9690 H   0  0  0  0  0  0  0  0  0  0  0  0 
    2.9039    2.0922    0.0639 H   0  0  0  0  0  0  0  0  0  0  0  0 
    2.9463   -2.2472    0.0707 H   0  0  0  0  0  0  0  0  0  0  0  0 
    5.2982   -1.3556    0.0730 H   0  0  0  0  0  0  0  0  0  0  0  0 
  1  5  1  0  0  0  0 
  1  8  1  0  0  0  0 
  1  9  1  0  0  0  0 
  2 13  1  0  0  0  0 
  3  6  2  0  0  0  0 
  4 15  1  0  0  0  0 
  4  7  1  0  0  0  0 
  5  3  1  0  0  0  0 
  5  4  2  0  0  0  0 
  6  7  1  0  0  0  0 
  6  2  1  0  0  0  0 
 10  1  1  0  0  0  0 
 11  2  1  0  0  0  0 
 12  2  1  0  0  0  0 
 14  3  1  0  0  0  0 
 16  7  1  0  0  0  0 
M  END 
>  <HBA> 
0 
 
>  <HBD> 
1 
 
>  <TPSA> 
15.79 
 
>  <cid> 
39539 
 
>  <dipole> 
1.78 
 
>  <excitation_energy_1> 
4.519 
 
>  <excitation_energy_2> 
5.179 
 
>  <excitation_energy_3> 
5.255 
 
>  <excitation_energy_4> 
5.475 
 
>  <homo_energy> 
-5.083 
 
>  <homo_lumo_gap> 
6.422 
 
>  <logP> 
1.631 
 
>  <lumo_energy> 
1.339 
 
>  <melting_point> 
59.26 
 
>  <molecular_refractivity> 
30.72 
 
>  <oscillator_strength_1> 
0.0017 
 
>  <oscillator_strength_2> 
0.0005 
 
>  <oscillator_strength_3> 
0.0014 
 
>  <oscillator_strength_4> 
0.0004 
 
>  <open_babel_can_smiles> 
Cc1[nH]cc(c1)C 
 
>  <mulliken_charges> 
16 
1   -0.528006 
2   -0.529996 
3   -0.251589 
4   -0.015299 
5   0.117371 
6   0.333237 
7   -0.610134 
8   0.149841 
9   0.151461 
10   0.151755 
11   0.167719 
12   0.153678 
13   0.154122 
14   0.107002 
15   0.129209 
16   0.319627 
 
>  <lowdin_charges> 
16 
1   -0.43921 
2   -0.443141 
3   -0.239071 
4   -0.174421 
5   -0.048829 
6   0.001206 
7   -0.186672 
8   0.154436 
9   0.154403 
10   0.154252 
11   0.166126 
12   0.154636 
13   0.154744 
14   0.151299 
15   0.15509 
16   0.285153 
 
$$$$ 
 
