PCCDB-ID:  39892 
public computational chemistry database (PCCDB) project, http://pccdb.org 
 
 35 35  0  0  0  0  0  0  0  0999 V2000 
    1.2553    0.7618    0.1773 C   0  0  0  0  0  0  0  0  0  0  0  0 
    5.8531   -3.5662    2.1217 C   0  0  0  0  0  0  0  0  0  0  0  0 
    3.6558   -2.5629   -2.4661 C   0  0  0  0  0  0  0  0  0  0  0  0 
    5.7222   -1.2212   -2.7153 C   0  0  0  0  0  0  0  0  0  0  0  0 
    2.6571    1.1114    0.7080 C   0  0  0  0  0  0  0  0  0  0  0  0 
    4.3319   -3.4360    2.3184 C   0  0  0  0  0  0  0  0  0  0  0  0 
    3.3859   -0.2522    4.1951 C   0  0  0  0  0  0  0  0  0  0  0  0 
    3.0491    0.5988    3.1443 C   0  0  0  0  0  0  0  0  0  0  0  0 
    3.7896   -1.5550    3.9133 C   0  0  0  0  0  0  0  0  0  0  0  0 
    4.5424   -1.2914   -0.5660 C   0  0  0  0  0  0  0  0  0  0  0  0 
    3.1173    0.1775    1.8115 C   0  0  0  0  0  0  0  0  0  0  0  0 
    3.8777   -2.0184    2.5964 C   0  0  0  0  0  0  0  0  0  0  0  0 
    3.5558   -1.1402    1.5368 C   0  0  0  0  0  0  0  0  0  0  0  0 
    3.5817   -1.6321    0.2112 N   0  0  0  0  0  0  0  0  0  0  0  0 
    4.6656   -1.7156   -1.8579 N   0  0  0  0  0  0  0  0  0  0  0  0 
    0.9540    1.4532   -0.6192 H   0  0  0  0  0  0  0  0  0  0  0  0 
    0.5107    0.8209    0.9790 H   0  0  0  0  0  0  0  0  0  0  0  0 
    1.2385   -0.2560   -0.2250 H   0  0  0  0  0  0  0  0  0  0  0  0 
    6.1377   -4.6110    1.9469 H   0  0  0  0  0  0  0  0  0  0  0  0 
    6.3960   -3.2099    3.0047 H   0  0  0  0  0  0  0  0  0  0  0  0 
    6.1928   -2.9767    1.2629 H   0  0  0  0  0  0  0  0  0  0  0  0 
    4.1297   -3.4204   -2.9607 H   0  0  0  0  0  0  0  0  0  0  0  0 
    3.0733   -2.0096   -3.2169 H   0  0  0  0  0  0  0  0  0  0  0  0 
    2.9835   -2.9160   -1.6841 H   0  0  0  0  0  0  0  0  0  0  0  0 
    6.2822   -2.0530   -3.1636 H   0  0  0  0  0  0  0  0  0  0  0  0 
    6.4191   -0.6122   -2.1333 H   0  0  0  0  0  0  0  0  0  0  0  0 
    5.3222   -0.6029   -3.5326 H   0  0  0  0  0  0  0  0  0  0  0  0 
    2.6521    2.1377    1.0957 H   0  0  0  0  0  0  0  0  0  0  0  0 
    3.3642    1.1061   -0.1295 H   0  0  0  0  0  0  0  0  0  0  0  0 
    4.0284   -4.0783    3.1551 H   0  0  0  0  0  0  0  0  0  0  0  0 
    3.8212   -3.8092    1.4238 H   0  0  0  0  0  0  0  0  0  0  0  0 
    3.3236    0.0943    5.2233 H   0  0  0  0  0  0  0  0  0  0  0  0 
    2.7198    1.6142    3.3563 H   0  0  0  0  0  0  0  0  0  0  0  0 
    4.0401   -2.2338    4.7265 H   0  0  0  0  0  0  0  0  0  0  0  0 
    5.3637   -0.6356   -0.2479 H   0  0  0  0  0  0  0  0  0  0  0  0 
  1  5  1  0  0  0  0 
  1 17  1  0  0  0  0 
  2  6  1  0  0  0  0 
  2 20  1  0  0  0  0 
  3 15  1  0  0  0  0 
  3 24  1  0  0  0  0 
  4 26  1  0  0  0  0 
  4 15  1  0  0  0  0 
  5 28  1  0  0  0  0 
  5 11  1  0  0  0  0 
  6 12  1  0  0  0  0 
  6 30  1  0  0  0  0 
  7 32  1  0  0  0  0 
  8 33  1  0  0  0  0 
  8  7  2  0  0  0  0 
  9  7  1  0  0  0  0 
  9 34  1  0  0  0  0 
 10 35  1  0  0  0  0 
 10 14  2  0  0  0  0 
 11  8  1  0  0  0  0 
 12  9  2  0  0  0  0 
 13 11  2  0  0  0  0 
 13 12  1  0  0  0  0 
 14 13  1  0  0  0  0 
 15 10  1  0  0  0  0 
 16  1  1  0  0  0  0 
 18  1  1  0  0  0  0 
 19  2  1  0  0  0  0 
 21  2  1  0  0  0  0 
 22  3  1  0  0  0  0 
 23  3  1  0  0  0  0 
 25  4  1  0  0  0  0 
 27  4  1  0  0  0  0 
 29  5  1  0  0  0  0 
 31  6  1  0  0  0  0 
M  END 
>  <HBA> 
2 
 
>  <HBD> 
0 
 
>  <TPSA> 
15.6 
 
>  <cid> 
39892 
 
>  <dipole> 
3.55 
 
>  <excitation_energy_1> 
4.682 
 
>  <excitation_energy_2> 
4.759 
 
>  <excitation_energy_3> 
4.972 
 
>  <excitation_energy_4> 
5.225 
 
>  <homo_energy> 
-5.363 
 
>  <homo_lumo_gap> 
5.785 
 
>  <logP> 
3.033 
 
>  <lumo_energy> 
0.422 
 
>  <melting_point> 
38.21 
 
>  <molecular_refractivity> 
67.71 
 
>  <oscillator_strength_1> 
0.0684 
 
>  <oscillator_strength_2> 
0.0218 
 
>  <oscillator_strength_3> 
0.0111 
 
>  <oscillator_strength_4> 
0.0305 
 
>  <open_babel_can_smiles> 
CCc1cccc(c1/N=C/N(C)C)CC 
 
>  <mulliken_charges> 
35 
1   -0.438861 
2   -0.434269 
3   -0.31894 
4   -0.309102 
5   -0.331155 
6   -0.332724 
7   -0.118466 
8   -0.211829 
9   -0.210822 
10   0.265382 
11   0.168554 
12   0.169764 
13   0.111728 
14   -0.519525 
15   -0.370561 
16   0.131692 
17   0.145124 
18   0.165094 
19   0.136732 
20   0.144243 
21   0.140206 
22   0.151334 
23   0.152511 
24   0.206039 
25   0.15905 
26   0.165058 
27   0.156554 
28   0.133765 
29   0.132014 
30   0.133242 
31   0.154343 
32   0.116392 
33   0.113517 
34   0.1136 
35   0.130313 
 
>  <lowdin_charges> 
35 
1   -0.444384 
2   -0.441229 
3   -0.358797 
4   -0.349715 
5   -0.269846 
6   -0.273602 
7   -0.172248 
8   -0.170224 
9   -0.171494 
10   -0.022161 
11   -0.027175 
12   -0.019986 
13   0.030392 
14   -0.228493 
15   -0.094896 
16   0.144153 
17   0.149302 
18   0.156706 
19   0.144462 
20   0.147961 
21   0.146039 
22   0.150826 
23   0.149273 
24   0.184826 
25   0.151999 
26   0.16283 
27   0.148342 
28   0.143282 
29   0.143922 
30   0.145299 
31   0.156091 
32   0.151514 
33   0.148989 
34   0.151291 
35   0.136751 
 
$$$$ 
 
