PCCDB-ID:  15379 
public computational chemistry database (PCCDB) project, http://pccdb.org 
 
 34 35  0  0  1  0  0  0  0  0999 V2000 
    1.0631   -0.3699   -0.1999 C   0  0  0  0  0  0  0  0  0  0  0  0 
    2.6676    6.3271    2.1089 C   0  0  0  0  0  0  0  0  0  0  0  0 
    3.0224   -0.0572    1.4212 C   0  0  0  0  0  0  0  0  0  0  0  0 
    2.6406    5.0282   -0.0789 C   0  0  0  0  0  0  0  0  0  0  0  0 
    2.5889    1.2284    2.1434 C   0  0  0  0  0  0  0  0  0  0  0  0 
    3.0614    3.7412   -0.8026 C   0  0  0  0  0  0  0  0  0  0  0  0 
    3.0142    1.1898   -0.7791 C   0  0  0  0  0  0  0  0  0  0  0  0 
    2.6415    3.7836    2.1176 C   0  0  0  0  0  0  0  0  0  0  0  0 
    2.5703   -0.1003   -0.0552 C   0  0  2  0  0  0  0  0  0  0  0  0 
    3.1153    5.0521    1.3853 C   0  0  2  0  0  0  0  0  0  0  0  0 
    2.5801    2.4814   -0.0640 C   0  0  1  0  0  0  0  0  0  0  0  0 
    3.0639    2.4895    1.4030 C   0  0  2  0  0  0  0  0  0  0  0  0 
    0.7911   -1.3215    0.2727 H   0  0  0  0  0  0  0  0  0  0  0  0 
    0.7767   -0.4284   -1.2570 H   0  0  0  0  0  0  0  0  0  0  0  0 
    0.4502    0.4119    0.2622 H   0  0  0  0  0  0  0  0  0  0  0  0 
    3.0354    7.2253    1.5981 H   0  0  0  0  0  0  0  0  0  0  0  0 
    3.0398    6.3520    3.1404 H   0  0  0  0  0  0  0  0  0  0  0  0 
    1.5725    6.3930    2.1495 H   0  0  0  0  0  0  0  0  0  0  0  0 
    2.6412   -0.9383    1.9548 H   0  0  0  0  0  0  0  0  0  0  0  0 
    4.1196   -0.1252    1.4553 H   0  0  0  0  0  0  0  0  0  0  0  0 
    1.5429    5.1140   -0.0982 H   0  0  0  0  0  0  0  0  0  0  0  0 
    3.0280    5.9071   -0.6119 H   0  0  0  0  0  0  0  0  0  0  0  0 
    2.9832    1.2286    3.1688 H   0  0  0  0  0  0  0  0  0  0  0  0 
    1.4937    1.2575    2.2392 H   0  0  0  0  0  0  0  0  0  0  0  0 
    4.1588    3.7111   -0.8862 H   0  0  0  0  0  0  0  0  0  0  0  0 
    2.6746    3.7412   -1.8309 H   0  0  0  0  0  0  0  0  0  0  0  0 
    2.6309    1.1894   -1.8094 H   0  0  0  0  0  0  0  0  0  0  0  0 
    4.1120    1.1907   -0.8598 H   0  0  0  0  0  0  0  0  0  0  0  0 
    1.5430    3.8078    2.2017 H   0  0  0  0  0  0  0  0  0  0  0  0 
    3.0275    3.7812    3.1470 H   0  0  0  0  0  0  0  0  0  0  0  0 
    3.0903   -0.9419   -0.5353 H   0  0  0  0  0  0  0  0  0  0  0  0 
    4.2174    5.0371    1.3761 H   0  0  0  0  0  0  0  0  0  0  0  0 
    1.4781    2.5145   -0.0452 H   0  0  0  0  0  0  0  0  0  0  0  0 
    4.1678    2.4652    1.3808 H   0  0  0  0  0  0  0  0  0  0  0  0 
  1  9  1  0  0  0  0 
  1 15  1  0  0  0  0 
  1 13  1  0  0  0  0 
  2 18  1  0  0  0  0 
  2 17  1  0  0  0  0 
  3 20  1  0  0  0  0 
  3 19  1  0  0  0  0 
  3  5  1  0  0  0  0 
  4 10  1  0  0  0  0 
  5 24  1  0  0  0  0 
  5 23  1  0  0  0  0 
  6  4  1  0  0  0  0 
  6 11  1  0  0  0  0 
  7 11  1  0  0  0  0 
  7  9  1  0  0  0  0 
  8 29  1  0  0  0  0 
  8 30  1  0  0  0  0 
  9 31  1  6  0  0  0 
  9  3  1  0  0  0  0 
 10 32  1  6  0  0  0 
 10  2  1  0  0  0  0 
 10  8  1  0  0  0  0 
 11 33  1  1  0  0  0 
 11 12  1  0  0  0  0 
 12 34  1  6  0  0  0 
 12  8  1  0  0  0  0 
 12  5  1  0  0  0  0 
 14  1  1  0  0  0  0 
 16  2  1  0  0  0  0 
 21  4  1  0  0  0  0 
 22  4  1  0  0  0  0 
 25  6  1  0  0  0  0 
 26  6  1  0  0  0  0 
 27  7  1  0  0  0  0 
 28  7  1  0  0  0  0 
M  END 
>  <HBA> 
0 
 
>  <HBD> 
0 
 
>  <TPSA> 
0.0 
 
>  <cid> 
15379 
 
>  <dipole> 
0.11 
 
>  <excitation_energy_1> 
6.928 
 
>  <excitation_energy_2> 
7.05 
 
>  <excitation_energy_3> 
7.133 
 
>  <excitation_energy_4> 
7.173 
 
>  <homo_energy> 
-7.383 
 
>  <homo_lumo_gap> 
9.644 
 
>  <logP> 
3.859 
 
>  <lumo_energy> 
2.261 
 
>  <melting_point> 
14.61 
 
>  <molecular_refractivity> 
55.57 
 
>  <oscillator_strength_1> 
0.0018 
 
>  <oscillator_strength_2> 
0.0006 
 
>  <oscillator_strength_3> 
0.0061 
 
>  <oscillator_strength_4> 
0.0272 
 
>  <open_babel_can_smiles> 
C[C@@H]1CC[C@@H]2[C@@H](C1)CC[C@H](C2)C 
 
>  <mulliken_charges> 
34 
1   -0.450902 
2   -0.44489 
3   -0.262631 
4   -0.257096 
5   -0.2666 
6   -0.265582 
7   -0.265736 
8   -0.259435 
9   -0.072051 
10   -0.071985 
11   -0.079137 
12   -0.078109 
13   0.138881 
14   0.138929 
15   0.144958 
16   0.138221 
17   0.138388 
18   0.137566 
19   0.12506 
20   0.124793 
21   0.122574 
22   0.125374 
23   0.125857 
24   0.127116 
25   0.122962 
26   0.125624 
27   0.122511 
28   0.12147 
29   0.119154 
30   0.12278 
31   0.116755 
32   0.115398 
33   0.112765 
34   0.107018 
 
>  <lowdin_charges> 
34 
1   -0.449524 
2   -0.440805 
3   -0.277461 
4   -0.276309 
5   -0.275324 
6   -0.273166 
7   -0.27487 
8   -0.273738 
9   -0.126187 
10   -0.122562 
11   -0.130339 
12   -0.128239 
13   0.147498 
14   0.146167 
15   0.146705 
16   0.147534 
17   0.146131 
18   0.142895 
19   0.141439 
20   0.136004 
21   0.133473 
22   0.141732 
23   0.140582 
24   0.135059 
25   0.133694 
26   0.14016 
27   0.138288 
28   0.135091 
29   0.132557 
30   0.138587 
31   0.138628 
32   0.13004 
33   0.129326 
34   0.126934 
 
$$$$ 
 
