PCCDB-ID:  60524 
public computational chemistry database (PCCDB) project, http://pccdb.org 
 
 30 32  0  0  1  0  0  0  0  0999 V2000 
    4.9291   -1.8570   -2.1361 C   0  0  0  0  0  0  0  0  0  0  0  0 
    4.6340   -1.8746   -0.7322 C   0  0  0  0  0  0  0  0  0  0  0  0 
    0.7907   -3.8139    3.2746 C   0  0  0  0  0  0  0  0  0  0  0  0 
   -0.6219   -4.7777    1.4352 C   0  0  0  0  0  0  0  0  0  0  0  0 
    0.3777   -2.3870    2.7925 C   0  0  0  0  0  0  0  0  0  0  0  0 
   -1.0297   -3.3099    1.0850 C   0  0  0  0  0  0  0  0  0  0  0  0 
    3.7339   -1.7286   -2.7705 C   0  0  0  0  0  0  0  0  0  0  0  0 
    2.3483   -1.6706    0.5463 C   0  0  0  0  0  0  0  0  0  0  0  0 
    0.8010   -4.7535    2.0422 C   0  0  1  0  0  0  0  0  0  0  0  0 
    3.2816   -1.7548   -0.6134 C   0  0  0  0  0  0  0  0  0  0  0  0 
    1.2463   -2.7600    0.5529 C   0  0  1  0  0  0  0  0  0  0  0  0 
    1.7521   -4.1361    1.0238 C   0  0  0  0  0  0  0  0  0  0  0  0 
    0.0660   -2.3607    1.3505 N   0  0  2  0  0  0  0  0  0  0  0  0 
    2.7909   -4.6455    0.6532 O   0  0  0  0  0  0  0  0  0  0  0  0 
    2.7170   -1.6606   -1.8599 O   0  0  0  0  0  0  0  0  0  0  0  0 
    5.9011   -1.9350   -2.6030 H   0  0  0  0  0  0  0  0  0  0  0  0 
    5.3368   -1.9813    0.0824 H   0  0  0  0  0  0  0  0  0  0  0  0 
    0.0823   -4.2070    4.0146 H   0  0  0  0  0  0  0  0  0  0  0  0 
    1.7767   -3.8032    3.7526 H   0  0  0  0  0  0  0  0  0  0  0  0 
   -0.6455   -5.4188    0.5466 H   0  0  0  0  0  0  0  0  0  0  0  0 
   -1.3132   -5.2195    2.1634 H   0  0  0  0  0  0  0  0  0  0  0  0 
    1.1734   -1.6612    2.9862 H   0  0  0  0  0  0  0  0  0  0  0  0 
   -0.5093   -2.0311    3.3273 H   0  0  0  0  0  0  0  0  0  0  0  0 
   -1.8969   -2.9902    1.6732 H   0  0  0  0  0  0  0  0  0  0  0  0 
   -1.3067   -3.2207    0.0289 H   0  0  0  0  0  0  0  0  0  0  0  0 
    3.4381   -1.6716   -3.8070 H   0  0  0  0  0  0  0  0  0  0  0  0 
    1.8254   -0.7050    0.5413 H   0  0  0  0  0  0  0  0  0  0  0  0 
    2.9482   -1.7129    1.4614 H   0  0  0  0  0  0  0  0  0  0  0  0 
    1.1519   -5.7559    2.3024 H   0  0  0  0  0  0  0  0  0  0  0  0 
    0.9020   -2.8724   -0.4840 H   0  0  0  0  0  0  0  0  0  0  0  0 
  1  2  1  0  0  0  0 
  2 10  2  0  0  0  0 
  2 17  1  0  0  0  0 
  3 19  1  0  0  0  0 
  3 18  1  0  0  0  0 
  4  9  1  0  0  0  0 
  4 21  1  0  0  0  0 
  5 22  1  0  0  0  0 
  5  3  1  0  0  0  0 
  5 23  1  0  0  0  0 
  6  4  1  0  0  0  0 
  6 24  1  0  0  0  0 
  7  1  2  0  0  0  0 
  7 15  1  0  0  0  0 
  8 11  1  0  0  0  0 
  8 28  1  0  0  0  0 
  9 29  1  1  0  0  0 
  9  3  1  0  0  0  0 
 10  8  1  0  0  0  0 
 11 30  1  6  0  0  0 
 11 12  1  0  0  0  0 
 11 13  1  0  0  0  0 
 12  9  1  0  0  0  0 
 13  6  1  1  0  0  0 
 13  5  1  0  0  0  0 
 14 12  2  0  0  0  0 
 15 10  1  0  0  0  0 
 16  1  1  0  0  0  0 
 20  4  1  0  0  0  0 
 25  6  1  0  0  0  0 
 26  7  1  0  0  0  0 
 27  8  1  0  0  0  0 
M  END 
>  <HBA> 
3 
 
>  <HBD> 
0 
 
>  <TPSA> 
33.45 
 
>  <cid> 
60524 
 
>  <dipole> 
2.29 
 
>  <excitation_energy_1> 
3.662 
 
>  <excitation_energy_2> 
4.512 
 
>  <excitation_energy_3> 
4.954 
 
>  <excitation_energy_4> 
5.106 
 
>  <homo_energy> 
-5.461 
 
>  <homo_lumo_gap> 
5.029 
 
>  <logP> 
1.423 
 
>  <lumo_energy> 
-0.433 
 
>  <melting_point> 
70.91 
 
>  <molecular_refractivity> 
60.11 
 
>  <oscillator_strength_1> 
0.0045 
 
>  <oscillator_strength_2> 
0.0248 
 
>  <oscillator_strength_3> 
0.0014 
 
>  <oscillator_strength_4> 
0.0036 
 
>  <open_babel_can_smiles> 
O=C1[C@@H]2CCN([C@H]1Cc1ccco1)CC2 
 
>  <mulliken_charges> 
30 
1   -0.182765 
2   -0.194764 
3   -0.297637 
4   -0.29982 
5   -0.157503 
6   -0.147018 
7   0.081393 
8   -0.356399 
9   -0.170388 
10   0.36462 
11   -0.064893 
12   0.445578 
13   -0.397029 
14   -0.450076 
15   -0.448554 
16   0.137431 
17   0.135173 
18   0.14541 
19   0.152978 
20   0.152195 
21   0.144814 
22   0.153709 
23   0.148645 
24   0.145542 
25   0.150837 
26   0.148738 
27   0.175045 
28   0.155877 
29   0.147667 
30   0.181194 
 
>  <lowdin_charges> 
30 
1   -0.202993 
2   -0.212797 
3   -0.296778 
4   -0.300176 
5   -0.216713 
6   -0.210477 
7   -0.084646 
8   -0.270662 
9   -0.155996 
10   0.069734 
11   -0.101023 
12   0.140665 
13   -0.186775 
14   -0.227748 
15   -0.110599 
16   0.167197 
17   0.168112 
18   0.150985 
19   0.151845 
20   0.151926 
21   0.151428 
22   0.150827 
23   0.150711 
24   0.148726 
25   0.148123 
26   0.166891 
27   0.169663 
28   0.160604 
29   0.158631 
30   0.171317 
 
$$$$ 
 
