PCCDB-ID:  69694 
public computational chemistry database (PCCDB) project, http://pccdb.org 
 
 23 24  0  0  0  0  0  0  0  0999 V2000 
   -2.4762   -0.6467    0.4413 C   0  0  0  0  0  0  0  0  0  0  0  0 
   -2.4945    0.7282   -0.2382 C   0  0  0  0  0  0  0  0  0  0  0  0 
   -1.3039   -1.4992   -0.0687 C   0  0  0  0  0  0  0  0  0  0  0  0 
   -1.1976    1.4990    0.0508 C   0  0  0  0  0  0  0  0  0  0  0  0 
    1.2960   -1.4672   -0.3308 C   0  0  0  0  0  0  0  0  0  0  0  0 
    2.4436   -0.6636    0.2949 C   0  0  0  0  0  0  0  0  0  0  0  0 
   -0.0067   -0.7263   -0.1515 C   0  0  0  0  0  0  0  0  0  0  0  0 
    0.0058    0.6111   -0.0887 C   0  0  0  0  0  0  0  0  0  0  0  0 
    2.4184    0.7959   -0.1113 C   0  0  0  0  0  0  0  0  0  0  0  0 
    3.3898    1.4778   -0.3158 O   0  0  0  0  0  0  0  0  0  0  0  0 
    1.1753    1.3707   -0.1996 O   0  0  0  0  0  0  0  0  0  0  0  0 
   -3.4225   -1.1735    0.2704 H   0  0  0  0  0  0  0  0  0  0  0  0 
   -2.3806   -0.5112    1.5275 H   0  0  0  0  0  0  0  0  0  0  0  0 
   -3.3588    1.3146    0.0944 H   0  0  0  0  0  0  0  0  0  0  0  0 
   -2.6014    0.5936   -1.3232 H   0  0  0  0  0  0  0  0  0  0  0  0 
   -1.5456   -1.9131   -1.0613 H   0  0  0  0  0  0  0  0  0  0  0  0 
   -1.1653   -2.3719    0.5854 H   0  0  0  0  0  0  0  0  0  0  0  0 
   -1.2179    1.9272    1.0642 H   0  0  0  0  0  0  0  0  0  0  0  0 
   -1.0869    2.3499   -0.6328 H   0  0  0  0  0  0  0  0  0  0  0  0 
    1.2438   -2.4579    0.1369 H   0  0  0  0  0  0  0  0  0  0  0  0 
    1.4946   -1.6460   -1.3990 H   0  0  0  0  0  0  0  0  0  0  0  0 
    3.4296   -1.0612    0.0443 H   0  0  0  0  0  0  0  0  0  0  0  0 
    2.3462   -0.6879    1.3899 H   0  0  0  0  0  0  0  0  0  0  0  0 
  1 13  1  0  0  0  0 
  2  4  1  0  0  0  0 
  2 14  1  0  0  0  0 
  2  1  1  0  0  0  0 
  3  1  1  0  0  0  0 
  3 17  1  0  0  0  0 
  4 18  1  0  0  0  0 
  5  7  1  0  0  0  0 
  5 20  1  0  0  0  0 
  5  6  1  0  0  0  0 
  6 23  1  0  0  0  0 
  7  8  2  0  0  0  0 
  7  3  1  0  0  0  0 
  8  4  1  0  0  0  0 
  9  6  1  0  0  0  0 
 10  9  2  0  0  0  0 
 11  9  1  0  0  0  0 
 11  8  1  0  0  0  0 
 12  1  1  0  0  0  0 
 15  2  1  0  0  0  0 
 16  3  1  0  0  0  0 
 19  4  1  0  0  0  0 
 21  5  1  0  0  0  0 
 22  6  1  0  0  0  0 
M  END 
>  <HBA> 
2 
 
>  <HBD> 
0 
 
>  <TPSA> 
26.3 
 
>  <cid> 
69694 
 
>  <dipole> 
4.26 
 
>  <excitation_energy_1> 
5.081 
 
>  <excitation_energy_2> 
5.382 
 
>  <excitation_energy_3> 
5.48 
 
>  <excitation_energy_4> 
5.896 
 
>  <homo_energy> 
-6.155 
 
>  <homo_lumo_gap> 
5.981 
 
>  <logP> 
2.151 
 
>  <lumo_energy> 
-0.174 
 
>  <melting_point> 
45.67 
 
>  <molecular_refractivity> 
41.96 
 
>  <oscillator_strength_1> 
0.0688 
 
>  <oscillator_strength_2> 
0.0058 
 
>  <oscillator_strength_3> 
0.0239 
 
>  <oscillator_strength_4> 
0.0039 
 
>  <open_babel_can_smiles> 
O=C1CCC2=C(O1)CCCC2 
 
>  <mulliken_charges> 
23 
1   -0.267393 
2   -0.269392 
3   -0.325328 
4   -0.332704 
5   -0.334381 
6   -0.372273 
7   0.089159 
8   0.304296 
9   0.600906 
10   -0.44174 
11   -0.489857 
12   0.136663 
13   0.139465 
14   0.139471 
15   0.142588 
16   0.147107 
17   0.139933 
18   0.15721 
19   0.165259 
20   0.150697 
21   0.163217 
22   0.177569 
23   0.179529 
 
>  <lowdin_charges> 
23 
1   -0.273231 
2   -0.272476 
3   -0.268449 
4   -0.276442 
5   -0.268074 
6   -0.302655 
7   -0.074269 
8   0.068862 
9   0.206105 
10   -0.229857 
11   -0.159425 
12   0.147467 
13   0.141192 
14   0.149457 
15   0.142967 
16   0.147532 
17   0.148382 
18   0.155061 
19   0.164361 
20   0.154831 
21   0.154292 
22   0.17343 
23   0.17094 
 
$$$$ 
 
