PCCDB-ID:  33561 
public computational chemistry database (PCCDB) project, http://pccdb.org 
 
 39 40  0  0  0  0  0  0  0  0999 V2000 
    2.9066    1.6692   -2.9229 C   0  0  0  0  0  0  0  0  0  0  0  0 
    0.8395   -1.9051   -1.6117 C   0  0  0  0  0  0  0  0  0  0  0  0 
    7.0605   -3.5652   -0.7297 C   0  0  0  0  0  0  0  0  0  0  0  0 
    2.6694    0.1688   -3.1110 C   0  0  0  0  0  0  0  0  0  0  0  0 
    2.3368   -1.9472   -1.9324 C   0  0  0  0  0  0  0  0  0  0  0  0 
    8.6565    1.8947   -2.9401 C   0  0  0  0  0  0  0  0  0  0  0  0 
    9.8625    1.5650   -2.2900 C   0  0  0  0  0  0  0  0  0  0  0  0 
    7.5682    1.0301   -2.9137 C   0  0  0  0  0  0  0  0  0  0  0  0 
   10.0041    0.3629   -1.6038 C   0  0  0  0  0  0  0  0  0  0  0  0 
    5.3588   -1.3865   -2.4820 C   0  0  0  0  0  0  0  0  0  0  0  0 
    4.3753   -0.6518   -1.5284 C   0  0  0  0  0  0  0  0  0  0  0  0 
    7.4735   -2.2282   -1.2569 C   0  0  0  0  0  0  0  0  0  0  0  0 
    6.7824   -1.3035   -2.0106 C   0  0  0  0  0  0  0  0  0  0  0  0 
    7.6786   -0.1912   -2.2269 C   0  0  0  0  0  0  0  0  0  0  0  0 
    8.9064   -0.5020   -1.5818 C   0  0  0  0  0  0  0  0  0  0  0  0 
    8.7509   -1.7431   -1.0013 N   0  0  0  0  0  0  0  0  0  0  0  0 
    2.9636   -0.6226   -1.9138 N   0  0  0  0  0  0  0  0  0  0  0  0 
    2.5633    2.2174   -3.8077 H   0  0  0  0  0  0  0  0  0  0  0  0 
    3.9652    1.9108   -2.7797 H   0  0  0  0  0  0  0  0  0  0  0  0 
    2.3553    2.0352   -2.0502 H   0  0  0  0  0  0  0  0  0  0  0  0 
    0.4284   -2.9213   -1.5831 H   0  0  0  0  0  0  0  0  0  0  0  0 
    0.2706   -1.3439   -2.3609 H   0  0  0  0  0  0  0  0  0  0  0  0 
    0.6729   -1.4317   -0.6386 H   0  0  0  0  0  0  0  0  0  0  0  0 
    6.0894   -3.8573   -1.1372 H   0  0  0  0  0  0  0  0  0  0  0  0 
    6.9735   -3.5669    0.3656 H   0  0  0  0  0  0  0  0  0  0  0  0 
    7.7828   -4.3472   -1.0003 H   0  0  0  0  0  0  0  0  0  0  0  0 
    3.2291   -0.1865   -3.9983 H   0  0  0  0  0  0  0  0  0  0  0  0 
    1.6109    0.0189   -3.3475 H   0  0  0  0  0  0  0  0  0  0  0  0 
    2.4930   -2.4740   -2.8937 H   0  0  0  0  0  0  0  0  0  0  0  0 
    2.8348   -2.5548   -1.1670 H   0  0  0  0  0  0  0  0  0  0  0  0 
    8.5790    2.8408   -3.4691 H   0  0  0  0  0  0  0  0  0  0  0  0 
   10.6965    2.2607   -2.3247 H   0  0  0  0  0  0  0  0  0  0  0  0 
    6.6442    1.2957   -3.4218 H   0  0  0  0  0  0  0  0  0  0  0  0 
   10.9345    0.1086   -1.1019 H   0  0  0  0  0  0  0  0  0  0  0  0 
    5.2857   -0.9543   -3.4882 H   0  0  0  0  0  0  0  0  0  0  0  0 
    5.0503   -2.4348   -2.5805 H   0  0  0  0  0  0  0  0  0  0  0  0 
    4.7218    0.3782   -1.3934 H   0  0  0  0  0  0  0  0  0  0  0  0 
    4.4396   -1.1221   -0.5387 H   0  0  0  0  0  0  0  0  0  0  0  0 
    9.4574   -2.2345   -0.4759 H   0  0  0  0  0  0  0  0  0  0  0  0 
  1 19  1  0  0  0  0 
  1 20  1  0  0  0  0 
  2 21  1  0  0  0  0 
  2 23  1  0  0  0  0 
  3 25  1  0  0  0  0 
  4  1  1  0  0  0  0 
  4 17  1  0  0  0  0 
  5 17  1  0  0  0  0 
  5  2  1  0  0  0  0 
  5 30  1  0  0  0  0 
  6  8  2  0  0  0  0 
  6  7  1  0  0  0  0 
  7  9  2  0  0  0  0 
  8 14  1  0  0  0  0 
  9 15  1  0  0  0  0 
  9 34  1  0  0  0  0 
 10 13  1  0  0  0  0 
 10 11  1  0  0  0  0 
 11 37  1  0  0  0  0 
 11 38  1  0  0  0  0 
 12 16  1  0  0  0  0 
 12  3  1  0  0  0  0 
 13 12  2  0  0  0  0 
 14 13  1  0  0  0  0 
 14 15  2  0  0  0  0 
 15 16  1  0  0  0  0 
 16 39  1  0  0  0  0 
 17 11  1  0  0  0  0 
 18  1  1  0  0  0  0 
 22  2  1  0  0  0  0 
 24  3  1  0  0  0  0 
 26  3  1  0  0  0  0 
 27  4  1  0  0  0  0 
 28  4  1  0  0  0  0 
 29  5  1  0  0  0  0 
 31  6  1  0  0  0  0 
 32  7  1  0  0  0  0 
 33  8  1  0  0  0  0 
 35 10  1  0  0  0  0 
 36 10  1  0  0  0  0 
M  END 
>  <HBA> 
1 
 
>  <HBD> 
1 
 
>  <TPSA> 
19.03 
 
>  <cid> 
33561 
 
>  <dipole> 
2.52 
 
>  <excitation_energy_1> 
4.343 
 
>  <excitation_energy_2> 
4.401 
 
>  <excitation_energy_3> 
4.748 
 
>  <excitation_energy_4> 
4.775 
 
>  <homo_energy> 
-4.972 
 
>  <homo_lumo_gap> 
4.966 
 
>  <logP> 
3.361 
 
>  <lumo_energy> 
-0.005 
 
>  <melting_point> 
103.92 
 
>  <molecular_refractivity> 
75.16 
 
>  <oscillator_strength_1> 
0.064 
 
>  <oscillator_strength_2> 
0.0021 
 
>  <oscillator_strength_3> 
0.0163 
 
>  <oscillator_strength_4> 
0.0054 
 
>  <open_babel_can_smiles> 
CCN(CCc1c(C)[nH]c2c1cccc2)CC 
 
>  <mulliken_charges> 
39 
1   -0.454098 
2   -0.440296 
3   -0.538439 
4   -0.11619 
5   -0.114871 
6   -0.141989 
7   -0.150884 
8   -0.21431 
9   -0.170387 
10   -0.36769 
11   -0.138504 
12   0.300033 
13   0.028873 
14   0.078444 
15   0.32367 
16   -0.744381 
17   -0.372524 
18   0.139434 
19   0.151695 
20   0.15517 
21   0.135983 
22   0.145599 
23   0.153217 
24   0.171969 
25   0.164709 
26   0.158382 
27   0.113034 
28   0.137123 
29   0.113439 
30   0.130691 
31   0.117074 
32   0.1193 
33   0.123954 
34   0.116884 
35   0.146198 
36   0.137568 
37   0.149645 
38   0.134313 
39   0.318158 
 
>  <lowdin_charges> 
39 
1   -0.451261 
2   -0.450517 
3   -0.445335 
4   -0.197013 
5   -0.197411 
6   -0.177413 
7   -0.167887 
8   -0.168373 
9   -0.190522 
10   -0.287775 
11   -0.205815 
12   0.021158 
13   -0.073922 
14   -0.034434 
15   0.03403 
16   -0.213737 
17   -0.189783 
18   0.151579 
19   0.146961 
20   0.155441 
21   0.147626 
22   0.148575 
23   0.153273 
24   0.168467 
25   0.158789 
26   0.159171 
27   0.116769 
28   0.143204 
29   0.118306 
30   0.143109 
31   0.152719 
32   0.154736 
33   0.153551 
34   0.153399 
35   0.149068 
36   0.144523 
37   0.147598 
38   0.140657 
39   0.288486 
 
$$$$ 
 
