PCCDB-ID:  12356 
public computational chemistry database (PCCDB) project, http://pccdb.org 
 
 15 14  0  0  0  0  0  0  0  0999 V2000 
    1.1193   -0.0367   -0.1325 C   0  0  0  0  0  0  0  0  0  0  0  0 
    2.9262   -0.1002    1.3686 C   0  0  0  0  0  0  0  0  0  0  0  0 
    4.4418   -0.1421    1.4295 C   0  0  0  0  0  0  0  0  0  0  0  0 
    5.1614    2.0990    1.7128 C   0  0  0  0  0  0  0  0  0  0  0  0 
    4.8068    2.1418    2.8666 O   0  0  0  0  0  0  0  0  0  0  0  0 
    2.5212   -0.1149    0.0169 O   0  0  0  0  0  0  0  0  0  0  0  0 
    5.0439    1.0531    0.8802 O   0  0  0  0  0  0  0  0  0  0  0  0 
    0.9094   -0.0502   -1.2050 H   0  0  0  0  0  0  0  0  0  0  0  0 
    0.7143    0.8920    0.3003 H   0  0  0  0  0  0  0  0  0  0  0  0 
    0.6093   -0.8907    0.3426 H   0  0  0  0  0  0  0  0  0  0  0  0 
    2.5534    0.7966    1.8875 H   0  0  0  0  0  0  0  0  0  0  0  0 
    2.5337   -0.9810    1.9084 H   0  0  0  0  0  0  0  0  0  0  0  0 
    4.8217   -0.9544    0.8070 H   0  0  0  0  0  0  0  0  0  0  0  0 
    4.7718   -0.2712    2.4634 H   0  0  0  0  0  0  0  0  0  0  0  0 
    5.6449    2.9279    1.1738 H   0  0  0  0  0  0  0  0  0  0  0  0 
  1  6  1  0  0  0  0 
  1  9  1  0  0  0  0 
  1 10  1  0  0  0  0 
  2  3  1  0  0  0  0 
  2 11  1  0  0  0  0 
  2 12  1  0  0  0  0 
  3 14  1  0  0  0  0 
  4  5  2  0  0  0  0 
  6  2  1  0  0  0  0 
  7  3  1  0  0  0  0 
  7  4  1  0  0  0  0 
  8  1  1  0  0  0  0 
 13  3  1  0  0  0  0 
 15  4  1  0  0  0  0 
M  END 
>  <HBA> 
3 
 
>  <HBD> 
0 
 
>  <TPSA> 
35.53 
 
>  <cid> 
12356 
 
>  <dipole> 
1.59 
 
>  <excitation_energy_1> 
5.796 
 
>  <excitation_energy_2> 
6.337 
 
>  <excitation_energy_3> 
6.67 
 
>  <excitation_energy_4> 
7.099 
 
>  <homo_energy> 
-7.11 
 
>  <homo_lumo_gap> 
7.279 
 
>  <logP> 
0.442 
 
>  <lumo_energy> 
0.169 
 
>  <melting_point> 
-49.41 
 
>  <molecular_refractivity> 
24.1 
 
>  <oscillator_strength_1> 
0.0015 
 
>  <oscillator_strength_2> 
0.0011 
 
>  <oscillator_strength_3> 
0.0256 
 
>  <oscillator_strength_4> 
0.0065 
 
>  <open_babel_can_smiles> 
COCCOC=O 
 
>  <mulliken_charges> 
15 
1   -0.19352 
2   -0.028785 
3   -0.070004 
4   0.38991 
5   -0.425125 
6   -0.454485 
7   -0.403079 
8   0.16241 
9   0.134571 
10   0.130857 
11   0.149829 
12   0.125216 
13   0.171311 
14   0.171141 
15   0.139752 
 
>  <lowdin_charges> 
15 
1   -0.277824 
2   -0.141608 
3   -0.13829 
4   0.085457 
5   -0.257195 
6   -0.269554 
7   -0.175231 
8   0.155926 
9   0.134617 
10   0.132965 
11   0.143877 
12   0.134916 
13   0.166498 
14   0.162336 
15   0.143109 
 
$$$$ 
 
