PCCDB-ID:  11470 
public computational chemistry database (PCCDB) project, http://pccdb.org 
 
 20 20  0  0  0  0  0  0  0  0999 V2000 
    3.0997    1.4792    0.0406 C   0  0  0  0  0  0  0  0  0  0  0  0 
    2.9860   -2.2127    1.2054 C   0  0  0  0  0  0  0  0  0  0  0  0 
    4.4244   -0.4151    1.9550 C   0  0  0  0  0  0  0  0  0  0  0  0 
    3.6031   -3.0847    2.0937 C   0  0  0  0  0  0  0  0  0  0  0  0 
    5.0456   -1.2845    2.8458 C   0  0  0  0  0  0  0  0  0  0  0  0 
    2.6806    0.0229    0.1435 C   0  0  0  0  0  0  0  0  0  0  0  0 
    3.3879   -0.8702    1.1253 C   0  0  0  0  0  0  0  0  0  0  0  0 
    4.6388   -2.6224    2.9200 C   0  0  0  0  0  0  0  0  0  0  0  0 
    5.3383   -3.5084    3.8910 C   0  0  0  0  0  0  0  0  0  0  0  0 
    1.7853   -0.4199   -0.5584 O   0  0  0  0  0  0  0  0  0  0  0  0 
    4.8669   -4.7806    3.8824 O   0  0  0  0  0  0  0  0  0  0  0  0 
    6.2392   -3.1569    4.6258 O   0  0  0  0  0  0  0  0  0  0  0  0 
    4.1538    1.5662   -0.2494 H   0  0  0  0  0  0  0  0  0  0  0  0 
    2.9816    1.9938    1.0017 H   0  0  0  0  0  0  0  0  0  0  0  0 
    2.4777    1.9690   -0.7103 H   0  0  0  0  0  0  0  0  0  0  0  0 
    2.1838   -2.5477    0.5565 H   0  0  0  0  0  0  0  0  0  0  0  0 
    4.7508    0.6190    1.9097 H   0  0  0  0  0  0  0  0  0  0  0  0 
    3.2902   -4.1211    2.1535 H   0  0  0  0  0  0  0  0  0  0  0  0 
    5.8485   -0.9470    3.4927 H   0  0  0  0  0  0  0  0  0  0  0  0 
    5.3931   -5.2625    4.5470 H   0  0  0  0  0  0  0  0  0  0  0  0 
  1  6  1  0  0  0  0 
  1 14  1  0  0  0  0 
  2  4  1  0  0  0  0 
  3  5  2  0  0  0  0 
  4 18  1  0  0  0  0 
  4  8  2  0  0  0  0 
  5  8  1  0  0  0  0 
  5 19  1  0  0  0  0 
  6  7  1  0  0  0  0 
  7  2  2  0  0  0  0 
  7  3  1  0  0  0  0 
  8  9  1  0  0  0  0 
  9 12  2  0  0  0  0 
 10  6  2  0  0  0  0 
 11  9  1  0  0  0  0 
 11 20  1  0  0  0  0 
 13  1  1  0  0  0  0 
 15  1  1  0  0  0  0 
 16  2  1  0  0  0  0 
 17  3  1  0  0  0  0 
M  END 
>  <HBA> 
3 
 
>  <HBD> 
1 
 
>  <TPSA> 
54.37 
 
>  <cid> 
11470 
 
>  <dipole> 
1.07 
 
>  <excitation_energy_1> 
3.493 
 
>  <excitation_energy_2> 
4.418 
 
>  <excitation_energy_3> 
4.53 
 
>  <excitation_energy_4> 
4.872 
 
>  <homo_energy> 
-6.996 
 
>  <homo_lumo_gap> 
4.8 
 
>  <logP> 
1.587 
 
>  <lumo_energy> 
-2.196 
 
>  <melting_point> 
130.54 
 
>  <molecular_refractivity> 
43.6 
 
>  <oscillator_strength_1> 
0.0 
 
>  <oscillator_strength_2> 
0.0357 
 
>  <oscillator_strength_3> 
0.0 
 
>  <oscillator_strength_4> 
0.4361 
 
>  <open_babel_can_smiles> 
CC(=O)c1ccc(cc1)C(=O)O 
 
>  <mulliken_charges> 
20 
1   -0.544486 
2   -0.16747 
3   -0.190323 
4   -0.161848 
5   -0.161136 
6   0.413025 
7   0.084825 
8   0.076634 
9   0.542732 
10   -0.444691 
11   -0.57984 
12   -0.469083 
13   0.17444 
14   0.174004 
15   0.185392 
16   0.171648 
17   0.1431 
18   0.167803 
19   0.170246 
20   0.415029 
 
>  <lowdin_charges> 
20 
1   -0.475283 
2   -0.128708 
3   -0.149276 
4   -0.135478 
5   -0.129882 
6   0.162463 
7   -0.036808 
8   -0.035092 
9   0.19598 
10   -0.23289 
11   -0.358821 
12   -0.266572 
13   0.17072 
14   0.171464 
15   0.178449 
16   0.181221 
17   0.164674 
18   0.17608 
19   0.180838 
20   0.36692 
 
$$$$ 
 
