PCCDB-ID:  70497 
public computational chemistry database (PCCDB) project, http://pccdb.org 
 
 18 18  0  0  0  0  0  0  0  0999 V2000 
    1.2405   -0.1006   -0.2155 C   0  0  0  0  0  0  0  0  0  0  0  0 
    4.0175    3.2631   -3.0828 C   0  0  0  0  0  0  0  0  0  0  0  0 
    2.9568    3.2189   -2.2105 C   0  0  0  0  0  0  0  0  0  0  0  0 
    4.7207    2.0557   -3.4339 C   0  0  0  0  0  0  0  0  0  0  0  0 
    3.1420    0.9642   -1.9244 C   0  0  0  0  0  0  0  0  0  0  0  0 
    2.2044    4.3229   -1.8762 N   0  0  0  0  0  0  0  0  0  0  0  0 
    5.7213    1.8349   -4.2135 N   0  0  0  0  0  0  0  0  0  0  0  0 
    2.5078    2.0542   -1.6084 N   0  0  0  0  0  0  0  0  0  0  0  0 
    4.1883    0.9132   -2.7825 N   0  0  0  0  0  0  0  0  0  0  0  0 
    2.6735   -0.6037   -1.2258 S   0  0  0  0  0  0  0  0  0  0  0  0 
    0.8813   -1.0160    0.2612 H   0  0  0  0  0  0  0  0  0  0  0  0 
    0.4608    0.3272   -0.8467 H   0  0  0  0  0  0  0  0  0  0  0  0 
    1.5432    0.6246    0.5404 H   0  0  0  0  0  0  0  0  0  0  0  0 
    4.3350    4.1981   -3.5323 H   0  0  0  0  0  0  0  0  0  0  0  0 
    2.6263    5.2311   -2.0100 H   0  0  0  0  0  0  0  0  0  0  0  0 
    1.6620    4.2238   -1.0288 H   0  0  0  0  0  0  0  0  0  0  0  0 
    6.0302    2.7113   -4.6368 H   0  0  0  0  0  0  0  0  0  0  0  0 
    4.6509    0.0392   -3.0076 H   0  0  0  0  0  0  0  0  0  0  0  0 
  1 11  1  0  0  0  0 
  1 13  1  0  0  0  0 
  2  3  2  0  0  0  0 
  3  6  1  0  0  0  0 
  3  8  1  0  0  0  0 
  4  2  1  0  0  0  0 
  4  9  1  0  0  0  0 
  5  8  2  0  0  0  0 
  5 10  1  0  0  0  0 
  6 16  1  0  0  0  0 
  7  4  2  0  0  0  0 
  9  5  1  0  0  0  0 
 10  1  1  0  0  0  0 
 12  1  1  0  0  0  0 
 14  2  1  0  0  0  0 
 15  6  1  0  0  0  0 
 17  7  1  0  0  0  0 
 18  9  1  0  0  0  0 
M  END 
>  <HBA> 
5 
 
>  <HBD> 
2 
 
>  <TPSA> 
103.12 
 
>  <cid> 
70497 
 
>  <dipole> 
4.09 
 
>  <excitation_energy_1> 
4.022 
 
>  <excitation_energy_2> 
4.559 
 
>  <excitation_energy_3> 
4.656 
 
>  <excitation_energy_4> 
5.229 
 
>  <homo_energy> 
-5.241 
 
>  <homo_lumo_gap> 
4.781 
 
>  <logP> 
1.525 
 
>  <lumo_energy> 
-0.46 
 
>  <melting_point> 
147.46 
 
>  <molecular_refractivity> 
42.56 
 
>  <oscillator_strength_1> 
0.0523 
 
>  <oscillator_strength_2> 
0.0004 
 
>  <oscillator_strength_3> 
0.0001 
 
>  <oscillator_strength_4> 
0.0063 
 
>  <open_babel_can_smiles> 
CSc1nc(N)cc(=N)[nH]1 
 
>  <mulliken_charges> 
18 
1   -0.573957 
2   -0.249621 
3   0.47262 
4   0.498171 
5   0.349436 
6   -0.76668 
7   -0.693304 
8   -0.546189 
9   -0.637589 
10   0.143209 
11   0.184156 
12   0.205459 
13   0.202318 
14   0.118107 
15   0.329932 
16   0.335388 
17   0.275705 
18   0.352837 
 
>  <lowdin_charges> 
18 
1   -0.531807 
2   -0.308577 
3   0.123023 
4   0.099253 
5   0.009945 
6   -0.462959 
7   -0.477081 
8   -0.248347 
9   -0.205627 
10   0.175207 
11   0.178406 
12   0.18136 
13   0.179616 
14   0.161094 
15   0.282944 
16   0.286936 
17   0.251281 
18   0.305332 
 
$$$$ 
 
