PCCDB-ID:  40749 
public computational chemistry database (PCCDB) project, http://pccdb.org 
 
 27 26  0  0  0  0  0  0  0  0999 V2000 
    0.2354    1.5879   -0.3807 C   0  0  0  0  0  0  0  0  0  0  0  0 
    9.6427    3.6349   -2.3808 C   0  0  0  0  0  0  0  0  0  0  0  0 
    1.7230    1.2628   -0.5466 C   0  0  0  0  0  0  0  0  0  0  0  0 
    8.1261    3.8900   -2.4506 C   0  0  0  0  0  0  0  0  0  0  0  0 
    2.5858    1.8078    0.6080 C   0  0  0  0  0  0  0  0  0  0  0  0 
    4.0412    1.4586    0.4687 C   0  0  0  0  0  0  0  0  0  0  0  0 
    5.0437    2.3378    0.3879 C   0  0  0  0  0  0  0  0  0  0  0  0 
    6.4848    1.9464    0.2692 C   0  0  0  0  0  0  0  0  0  0  0  0 
    7.4717    3.6262   -1.1090 C   0  0  0  0  0  0  0  0  0  0  0  0 
    7.3711    4.4409   -0.2150 O   0  0  0  0  0  0  0  0  0  0  0  0 
    7.0556    2.3429   -1.0115 O   0  0  0  0  0  0  0  0  0  0  0  0 
   -0.3545    1.1894   -1.2138 H   0  0  0  0  0  0  0  0  0  0  0  0 
    0.0684    2.6712   -0.3422 H   0  0  0  0  0  0  0  0  0  0  0  0 
   -0.1638    1.1586    0.5466 H   0  0  0  0  0  0  0  0  0  0  0  0 
   10.1121    3.8577   -3.3444 H   0  0  0  0  0  0  0  0  0  0  0  0 
    9.8527    2.5890   -2.1331 H   0  0  0  0  0  0  0  0  0  0  0  0 
   10.1070    4.2691   -1.6186 H   0  0  0  0  0  0  0  0  0  0  0  0 
    2.0919    1.6773   -1.4939 H   0  0  0  0  0  0  0  0  0  0  0  0 
    1.8566    0.1742   -0.6156 H   0  0  0  0  0  0  0  0  0  0  0  0 
    7.6698    3.2496   -3.2116 H   0  0  0  0  0  0  0  0  0  0  0  0 
    7.9334    4.9355   -2.7087 H   0  0  0  0  0  0  0  0  0  0  0  0 
    2.2013    1.3968    1.5548 H   0  0  0  0  0  0  0  0  0  0  0  0 
    2.4705    2.8978    0.6730 H   0  0  0  0  0  0  0  0  0  0  0  0 
    4.2730    0.3912    0.4287 H   0  0  0  0  0  0  0  0  0  0  0  0 
    4.8437    3.4076    0.4234 H   0  0  0  0  0  0  0  0  0  0  0  0 
    6.6062    0.8610    0.2953 H   0  0  0  0  0  0  0  0  0  0  0  0 
    7.0859    2.4042    1.0607 H   0  0  0  0  0  0  0  0  0  0  0  0 
  1 13  1  0  0  0  0 
  1 14  1  0  0  0  0 
  2 16  1  0  0  0  0 
  2 17  1  0  0  0  0 
  3  1  1  0  0  0  0 
  3  5  1  0  0  0  0 
  4  2  1  0  0  0  0 
  4  9  1  0  0  0  0 
  5 23  1  0  0  0  0 
  5 22  1  0  0  0  0 
  6  5  1  0  0  0  0 
  7 25  1  0  0  0  0 
  7  6  2  0  0  0  0 
  8 26  1  0  0  0  0 
  8  7  1  0  0  0  0 
  8 27  1  0  0  0  0 
  9 11  1  0  0  0  0 
  9 10  2  0  0  0  0 
 11  8  1  0  0  0  0 
 12  1  1  0  0  0  0 
 15  2  1  0  0  0  0 
 18  3  1  0  0  0  0 
 19  3  1  0  0  0  0 
 20  4  1  0  0  0  0 
 21  4  1  0  0  0  0 
 24  6  1  0  0  0  0 
M  END 
>  <HBA> 
2 
 
>  <HBD> 
0 
 
>  <TPSA> 
26.3 
 
>  <cid> 
40749 
 
>  <dipole> 
1.88 
 
>  <excitation_energy_1> 
5.69 
 
>  <excitation_energy_2> 
6.268 
 
>  <excitation_energy_3> 
6.547 
 
>  <excitation_energy_4> 
6.588 
 
>  <homo_energy> 
-6.817 
 
>  <homo_lumo_gap> 
7.094 
 
>  <logP> 
2.296 
 
>  <lumo_energy> 
0.278 
 
>  <melting_point> 
-6.32 
 
>  <molecular_refractivity> 
46.19 
 
>  <oscillator_strength_1> 
0.0007 
 
>  <oscillator_strength_2> 
0.0197 
 
>  <oscillator_strength_3> 
0.1554 
 
>  <oscillator_strength_4> 
0.0163 
 
>  <open_babel_can_smiles> 
CCC/C=C/COC(=O)CC 
 
>  <mulliken_charges> 
27 
1   -0.442295 
2   -0.453805 
3   -0.249193 
4   -0.325412 
5   -0.297822 
6   -0.085498 
7   -0.114678 
8   -0.09903 
9   0.604848 
10   -0.480826 
11   -0.452608 
12   0.14525 
13   0.14465 
14   0.14257 
15   0.155258 
16   0.159686 
17   0.166487 
18   0.142474 
19   0.133025 
20   0.161914 
21   0.167193 
22   0.141946 
23   0.141685 
24   0.121198 
25   0.14913 
26   0.152635 
27   0.171218 
 
>  <lowdin_charges> 
27 
1   -0.444049 
2   -0.435889 
3   -0.268565 
4   -0.294391 
5   -0.269447 
6   -0.145744 
7   -0.183227 
8   -0.127064 
9   0.200709 
10   -0.276797 
11   -0.198346 
12   0.152243 
13   0.14625 
14   0.147188 
15   0.156131 
16   0.154319 
17   0.160209 
18   0.144914 
19   0.13817 
20   0.163404 
21   0.164534 
22   0.148735 
23   0.145617 
24   0.14487 
25   0.160431 
26   0.152771 
27   0.163022 
 
$$$$ 
 
