PCCDB-ID:  9217 
public computational chemistry database (PCCDB) project, http://pccdb.org 
 
 22 24  0  0  0  0  0  0  0  0999 V2000 
    3.6146    0.8515    0.0001 C   0  0  0  0  0  0  0  0  0  0  0  0 
   -3.6138    0.8533   -0.0010 C   0  0  0  0  0  0  0  0  0  0  0  0 
    3.7844   -0.5333   -0.0004 C   0  0  0  0  0  0  0  0  0  0  0  0 
   -3.7843   -0.5315   -0.0012 C   0  0  0  0  0  0  0  0  0  0  0  0 
    2.3305    1.3918   -0.0002 C   0  0  0  0  0  0  0  0  0  0  0  0 
   -2.3294    1.3929   -0.0008 C   0  0  0  0  0  0  0  0  0  0  0  0 
    2.6663   -1.3656   -0.0002 C   0  0  0  0  0  0  0  0  0  0  0  0 
   -2.6666   -1.3643   -0.0007 C   0  0  0  0  0  0  0  0  0  0  0  0 
    1.2122    0.5568   -0.0003 C   0  0  0  0  0  0  0  0  0  0  0  0 
   -1.2116    0.5574   -0.0004 C   0  0  0  0  0  0  0  0  0  0  0  0 
    1.3720   -0.8335   -0.0001 C   0  0  0  0  0  0  0  0  0  0  0  0 
   -1.3721   -0.8329   -0.0002 C   0  0  0  0  0  0  0  0  0  0  0  0 
    0.0005    1.2113   -0.0014 O   0  0  0  0  0  0  0  0  0  0  0  0 
   -0.0003   -1.9695    0.0020 S   0  0  0  0  0  0  0  0  0  0  0  0 
    4.4756    1.5133   -0.0004 H   0  0  0  0  0  0  0  0  0  0  0  0 
   -4.4745    1.5155   -0.0015 H   0  0  0  0  0  0  0  0  0  0  0  0 
    4.7792   -0.9685    0.0001 H   0  0  0  0  0  0  0  0  0  0  0  0 
   -4.7793   -0.9662   -0.0016 H   0  0  0  0  0  0  0  0  0  0  0  0 
    2.1654    2.4646    0.0001 H   0  0  0  0  0  0  0  0  0  0  0  0 
   -2.1639    2.4657   -0.0007 H   0  0  0  0  0  0  0  0  0  0  0  0 
    2.7923   -2.4452   -0.0006 H   0  0  0  0  0  0  0  0  0  0  0  0 
   -2.7931   -2.4439   -0.0007 H   0  0  0  0  0  0  0  0  0  0  0  0 
  2  6  1  0  0  0  0 
  3  7  2  0  0  0  0 
  3  1  1  0  0  0  0 
  3 17  1  0  0  0  0 
  4  2  2  0  0  0  0 
  4  8  1  0  0  0  0 
  5  1  2  0  0  0  0 
  5 19  1  0  0  0  0 
  6 20  1  0  0  0  0 
  6 10  2  0  0  0  0 
  7 11  1  0  0  0  0 
  8 12  2  0  0  0  0 
  9  5  1  0  0  0  0 
  9 11  2  0  0  0  0 
 10 12  1  0  0  0  0 
 11 14  1  0  0  0  0 
 12 14  1  0  0  0  0 
 13 10  1  0  0  0  0 
 13  9  1  0  0  0  0 
 15  1  1  0  0  0  0 
 16  2  1  0  0  0  0 
 18  4  1  0  0  0  0 
 21  7  1  0  0  0  0 
 22  8  1  0  0  0  0 
M  END 
>  <HBA> 
2 
 
>  <HBD> 
0 
 
>  <TPSA> 
34.53 
 
>  <cid> 
9217 
 
>  <dipole> 
0.39 
 
>  <excitation_energy_1> 
3.745 
 
>  <excitation_energy_2> 
4.077 
 
>  <excitation_energy_3> 
4.166 
 
>  <excitation_energy_4> 
4.374 
 
>  <homo_energy> 
-5.2 
 
>  <homo_lumo_gap> 
4.629 
 
>  <logP> 
3.943 
 
>  <lumo_energy> 
-0.571 
 
>  <melting_point> 
83.32 
 
>  <molecular_refractivity> 
57.08 
 
>  <oscillator_strength_1> 
0.0053 
 
>  <oscillator_strength_2> 
0.0167 
 
>  <oscillator_strength_3> 
0.0805 
 
>  <oscillator_strength_4> 
0.0 
 
>  <open_babel_can_smiles> 
c1ccc2c(c1)Sc1c(O2)cccc1 
 
>  <mulliken_charges> 
22 
1   -0.13823 
2   -0.138223 
3   -0.116983 
4   -0.116977 
5   -0.177991 
6   -0.178004 
7   -0.181924 
8   -0.181936 
9   0.348092 
10   0.348105 
11   -0.115042 
12   -0.115032 
13   -0.566981 
14   0.203181 
15   0.13658 
16   0.136579 
17   0.134792 
18   0.134792 
19   0.146756 
20   0.146755 
21   0.145846 
22   0.145846 
 
>  <lowdin_charges> 
22 
1   -0.153601 
2   -0.153602 
3   -0.161846 
4   -0.161842 
5   -0.168741 
6   -0.168745 
7   -0.155368 
8   -0.155369 
9   0.096952 
10   0.096956 
11   -0.151923 
12   -0.151924 
13   -0.153509 
14   0.224167 
15   0.163099 
16   0.1631 
17   0.161613 
18   0.16161 
19   0.169339 
20   0.16934 
21   0.165147 
22   0.165148 
 
$$$$ 
 
