PCCDB-ID:  18055 
public computational chemistry database (PCCDB) project, http://pccdb.org 
 
 25 24  0  0  0  0  0  0  0  0999 V2000 
    1.8796   -3.2003   -2.3989 C   0  0  0  0  0  0  0  0  0  0  0  0 
    0.6673   -5.0387    0.6032 C   0  0  0  0  0  0  0  0  0  0  0  0 
    5.3599   -1.9693    2.0479 C   0  0  0  0  0  0  0  0  0  0  0  0 
    0.9475   -2.4225   -1.4656 C   0  0  0  0  0  0  0  0  0  0  0  0 
    0.3036   -3.5540    0.7095 C   0  0  0  0  0  0  0  0  0  0  0  0 
    4.0652   -1.3010    2.5020 C   0  0  0  0  0  0  0  0  0  0  0  0 
    2.2684   -2.0177    0.5142 C   0  0  0  0  0  0  0  0  0  0  0  0 
    1.1937   -2.6575   -0.0324 N   0  0  0  0  0  0  0  0  0  0  0  0 
    2.9947   -1.2640   -0.1184 O   0  0  0  0  0  0  0  0  0  0  0  0 
    2.5710   -2.3504    2.2893 S   0  0  0  0  0  0  0  0  0  0  0  0 
    1.6357   -2.9717   -3.4432 H   0  0  0  0  0  0  0  0  0  0  0  0 
    1.7859   -4.2820   -2.2567 H   0  0  0  0  0  0  0  0  0  0  0  0 
    2.9182   -2.9111   -2.2196 H   0  0  0  0  0  0  0  0  0  0  0  0 
   -0.0432   -5.6408    1.1817 H   0  0  0  0  0  0  0  0  0  0  0  0 
    1.6718   -5.2209    0.9973 H   0  0  0  0  0  0  0  0  0  0  0  0 
    0.6352   -5.3851   -0.4350 H   0  0  0  0  0  0  0  0  0  0  0  0 
    5.5427   -2.9013    2.5927 H   0  0  0  0  0  0  0  0  0  0  0  0 
    6.2087   -1.2965    2.2248 H   0  0  0  0  0  0  0  0  0  0  0  0 
    5.3181   -2.1896    0.9782 H   0  0  0  0  0  0  0  0  0  0  0  0 
   -0.0972   -2.6892   -1.6562 H   0  0  0  0  0  0  0  0  0  0  0  0 
    1.0584   -1.3504   -1.6518 H   0  0  0  0  0  0  0  0  0  0  0  0 
    0.2923   -3.2446    1.7587 H   0  0  0  0  0  0  0  0  0  0  0  0 
   -0.7122   -3.3871    0.3323 H   0  0  0  0  0  0  0  0  0  0  0  0 
    3.8829   -0.3787    1.9468 H   0  0  0  0  0  0  0  0  0  0  0  0 
    4.0840   -1.0682    3.5715 H   0  0  0  0  0  0  0  0  0  0  0  0 
  1 12  1  0  0  0  0 
  1 13  1  0  0  0  0 
  1  4  1  0  0  0  0 
  2  5  1  0  0  0  0 
  2 15  1  0  0  0  0 
  2 14  1  0  0  0  0 
  3 18  1  0  0  0  0 
  3  6  1  0  0  0  0 
  3 17  1  0  0  0  0 
  4  8  1  0  0  0  0 
  5 22  1  0  0  0  0 
  6 25  1  0  0  0  0 
  7 10  1  0  0  0  0 
  8  7  1  0  0  0  0 
  8  5  1  0  0  0  0 
  9  7  2  0  0  0  0 
 10  6  1  0  0  0  0 
 11  1  1  0  0  0  0 
 16  2  1  0  0  0  0 
 19  3  1  0  0  0  0 
 20  4  1  0  0  0  0 
 21  4  1  0  0  0  0 
 23  5  1  0  0  0  0 
 24  6  1  0  0  0  0 
M  END 
>  <HBA> 
3 
 
>  <HBD> 
0 
 
>  <TPSA> 
45.61 
 
>  <cid> 
18055 
 
>  <dipole> 
2.05 
 
>  <excitation_energy_1> 
5.593 
 
>  <excitation_energy_2> 
5.714 
 
>  <excitation_energy_3> 
5.906 
 
>  <excitation_energy_4> 
6.093 
 
>  <homo_energy> 
-6.329 
 
>  <homo_lumo_gap> 
7.162 
 
>  <logP> 
2.201 
 
>  <lumo_energy> 
0.833 
 
>  <melting_point> 
16.1 
 
>  <molecular_refractivity> 
46.84 
 
>  <oscillator_strength_1> 
0.0034 
 
>  <oscillator_strength_2> 
0.0721 
 
>  <oscillator_strength_3> 
0.0061 
 
>  <oscillator_strength_4> 
0.0176 
 
>  <open_babel_can_smiles> 
CCSC(=O)N(CC)CC 
 
>  <mulliken_charges> 
25 
1   -0.448369 
2   -0.441868 
3   -0.436661 
4   -0.136777 
5   -0.167346 
6   -0.404489 
7   0.415549 
8   -0.391569 
9   -0.496446 
10   0.062677 
11   0.144927 
12   0.146523 
13   0.181099 
14   0.148466 
15   0.172769 
16   0.153003 
17   0.15168 
18   0.146597 
19   0.176786 
20   0.139738 
21   0.176027 
22   0.186436 
23   0.151774 
24   0.201901 
25   0.167573 
 
>  <lowdin_charges> 
25 
1   -0.449316 
2   -0.454114 
3   -0.445481 
4   -0.184832 
5   -0.194825 
6   -0.362182 
7   0.058524 
8   -0.103401 
9   -0.311558 
10   0.077654 
11   0.152722 
12   0.146367 
13   0.166106 
14   0.156826 
15   0.162395 
16   0.150824 
17   0.152595 
18   0.153099 
19   0.163431 
20   0.145129 
21   0.162482 
22   0.167107 
23   0.149316 
24   0.178329 
25   0.162804 
 
$$$$ 
 
