PCCDB-ID:  7724 
public computational chemistry database (PCCDB) project, http://pccdb.org 
 
 16 16  0  0  0  0  0  0  0  0999 V2000 
    0.8696    0.0121    0.1547 C   0  0  0  0  0  0  0  0  0  0  0  0 
    3.0858   -1.2045   -0.0495 C   0  0  0  0  0  0  0  0  0  0  0  0 
    3.0935    1.2031   -0.0440 C   0  0  0  0  0  0  0  0  0  0  0  0 
    4.4720   -1.2175   -0.1787 C   0  0  0  0  0  0  0  0  0  0  0  0 
    4.4771    1.2090   -0.1730 C   0  0  0  0  0  0  0  0  0  0  0  0 
    6.6068   -0.0097   -0.3717 C   0  0  0  0  0  0  0  0  0  0  0  0 
    2.3733   -0.0003    0.0201 C   0  0  0  0  0  0  0  0  0  0  0  0 
    5.1793   -0.0071   -0.2411 C   0  0  0  0  0  0  0  0  0  0  0  0 
    7.7656   -0.0112   -0.4777 N   0  0  0  0  0  0  0  0  0  0  0  0 
    0.4684   -0.9997    0.2649 H   0  0  0  0  0  0  0  0  0  0  0  0 
    0.3967    0.4657   -0.7253 H   0  0  0  0  0  0  0  0  0  0  0  0 
    0.5534    0.5970    1.0267 H   0  0  0  0  0  0  0  0  0  0  0  0 
    2.5474   -2.1474   -0.0011 H   0  0  0  0  0  0  0  0  0  0  0  0 
    2.5601    2.1491    0.0087 H   0  0  0  0  0  0  0  0  0  0  0  0 
    5.0112   -2.1579   -0.2318 H   0  0  0  0  0  0  0  0  0  0  0  0 
    5.0224    2.1462   -0.2218 H   0  0  0  0  0  0  0  0  0  0  0  0 
  1 10  1  0  0  0  0 
  1 12  1  0  0  0  0 
  2 13  1  0  0  0  0 
  2  7  2  0  0  0  0 
  3 14  1  0  0  0  0 
  3  7  1  0  0  0  0 
  4  2  1  0  0  0  0 
  5  3  2  0  0  0  0 
  6  8  1  0  0  0  0 
  7  1  1  0  0  0  0 
  8  4  2  0  0  0  0 
  8  5  1  0  0  0  0 
  9  6  3  0  0  0  0 
 11  1  1  0  0  0  0 
 15  4  1  0  0  0  0 
 16  5  1  0  0  0  0 
M  END 
>  <HBA> 
1 
 
>  <HBD> 
0 
 
>  <TPSA> 
23.79 
 
>  <cid> 
7724 
 
>  <dipole> 
5.13 
 
>  <excitation_energy_1> 
5.025 
 
>  <excitation_energy_2> 
5.366 
 
>  <excitation_energy_3> 
6.285 
 
>  <excitation_energy_4> 
6.298 
 
>  <homo_energy> 
-6.977 
 
>  <homo_lumo_gap> 
5.685 
 
>  <logP> 
1.867 
 
>  <lumo_energy> 
-1.293 
 
>  <melting_point> 
45.89 
 
>  <molecular_refractivity> 
36.12 
 
>  <oscillator_strength_1> 
0.0044 
 
>  <oscillator_strength_2> 
0.3067 
 
>  <oscillator_strength_3> 
0.0001 
 
>  <oscillator_strength_4> 
0.3155 
 
>  <open_babel_can_smiles> 
N#Cc1ccc(cc1)C 
 
>  <mulliken_charges> 
16 
1   -0.533526 
2   -0.186733 
3   -0.180698 
4   -0.132164 
5   -0.133415 
6   0.236199 
7   0.187285 
8   0.123367 
9   -0.479752 
10   0.162537 
11   0.172843 
12   0.170819 
13   0.138382 
14   0.138264 
15   0.158304 
16   0.15829 
 
>  <lowdin_charges> 
16 
1   -0.443108 
2   -0.162632 
3   -0.159646 
4   -0.130886 
5   -0.131131 
6   -0.015405 
7   0.019711 
8   -0.023608 
9   -0.1222 
10   0.160353 
11   0.167785 
12   0.16674 
13   0.16297 
14   0.163065 
15   0.174058 
16   0.173935 
 
$$$$ 
 
