PCCDB-ID:  11672 
public computational chemistry database (PCCDB) project, http://pccdb.org 
 
 16 15  0  0  0  0  0  0  0  0999 V2000 
    1.0661   -0.0645    0.0465 C   0  0  0  0  0  0  0  0  0  0  0  0 
    3.1278    1.1028   -0.8626 C   0  0  0  0  0  0  0  0  0  0  0  0 
    3.1259    0.1975    1.5054 C   0  0  0  0  0  0  0  0  0  0  0  0 
    2.6008    0.0193    0.0800 C   0  0  0  0  0  0  0  0  0  0  0  0 
    3.0819   -1.3565   -0.4473 N   0  0  0  0  0  0  0  0  0  0  0  0 
    3.2152   -1.4850   -1.6609 O   0  0  0  0  0  0  0  0  0  0  0  0 
    3.2485   -2.2547    0.3727 O   0  0  0  0  0  0  0  0  0  0  0  0 
    0.6449    0.8797    0.4070 H   0  0  0  0  0  0  0  0  0  0  0  0 
    0.7060   -0.8726    0.6907 H   0  0  0  0  0  0  0  0  0  0  0  0 
    0.7076   -0.2371   -0.9729 H   0  0  0  0  0  0  0  0  0  0  0  0 
    2.7907    2.0797   -0.5002 H   0  0  0  0  0  0  0  0  0  0  0  0 
    2.7613    0.9593   -1.8802 H   0  0  0  0  0  0  0  0  0  0  0  0 
    4.2223    1.1073   -0.8873 H   0  0  0  0  0  0  0  0  0  0  0  0 
    2.7892    1.1675    1.8861 H   0  0  0  0  0  0  0  0  0  0  0  0 
    4.2203    0.1829    1.5288 H   0  0  0  0  0  0  0  0  0  0  0  0 
    2.7577   -0.5873    2.1681 H   0  0  0  0  0  0  0  0  0  0  0  0 
  1  4  1  0  0  0  0 
  1  8  1  0  0  0  0 
  1  9  1  0  0  0  0 
  2 11  1  0  0  0  0 
  2  4  1  0  0  0  0 
  3 15  1  0  0  0  0 
  3 14  1  0  0  0  0 
  3 16  1  0  0  0  0 
  4  3  1  0  0  0  0 
  5  4  1  0  0  0  0 
  5  7  2  0  0  0  0 
  6  5  2  0  0  0  0 
 10  1  1  0  0  0  0 
 12  2  1  0  0  0  0 
 13  2  1  0  0  0  0 
M  END 
>  <HBA> 
0 
 
>  <HBD> 
0 
 
>  <TPSA> 
45.82 
 
>  <cid> 
11672 
 
>  <dipole> 
3.7 
 
>  <excitation_energy_1> 
4.106 
 
>  <excitation_energy_2> 
4.396 
 
>  <excitation_energy_3> 
6.724 
 
>  <excitation_energy_4> 
6.874 
 
>  <homo_energy> 
-7.783 
 
>  <homo_lumo_gap> 
6.144 
 
>  <logP> 
1.585 
 
>  <lumo_energy> 
-1.638 
 
>  <melting_point> 
16.54 
 
>  <molecular_refractivity> 
29.48 
 
>  <oscillator_strength_1> 
0.0 
 
>  <oscillator_strength_2> 
0.0003 
 
>  <oscillator_strength_3> 
0.0205 
 
>  <oscillator_strength_4> 
0.0678 
 
>  <open_babel_can_smiles> 
CC(N(=O)=O)(C)C 
 
>  <mulliken_charges> 
16 
1   -0.44653 
2   -0.446033 
3   -0.445653 
4   0.130531 
5   0.464611 
6   -0.37713 
7   -0.376988 
8   0.162672 
9   0.172423 
10   0.173098 
11   0.152227 
12   0.180612 
13   0.161985 
14   0.151953 
15   0.162188 
16   0.180034 
 
>  <lowdin_charges> 
16 
1   -0.441462 
2   -0.44296 
3   -0.444574 
4   0.053845 
5   0.28943 
6   -0.242237 
7   -0.244027 
8   0.163697 
9   0.166029 
10   0.164713 
11   0.1589 
12   0.169605 
13   0.159419 
14   0.158836 
15   0.15961 
16   0.171174 
 
$$$$ 
 
