PCCDB-ID:  22637 
public computational chemistry database (PCCDB) project, http://pccdb.org 
 
 31 31  0  0  0  0  0  0  0  0999 V2000 
    1.4819    2.5903    1.3960 C   0  0  0  0  0  0  0  0  0  0  0  0 
    1.1858   -0.1131    3.2720 C   0  0  0  0  0  0  0  0  0  0  0  0 
    4.8550    3.1737    1.8599 C   0  0  0  0  0  0  0  0  0  0  0  0 
    2.3777    1.4412    0.9213 C   0  0  0  0  0  0  0  0  0  0  0  0 
    2.5042   -0.4208    2.5601 C   0  0  0  0  0  0  0  0  0  0  0  0 
    6.7282    1.5821    1.3795 C   0  0  0  0  0  0  0  0  0  0  0  0 
    5.1432   -0.6506    1.5875 C   0  0  0  0  0  0  0  0  0  0  0  0 
    5.3766    1.7778    1.6184 C   0  0  0  0  0  0  0  0  0  0  0  0 
    7.3305    0.3208    1.2366 C   0  0  0  0  0  0  0  0  0  0  0  0 
    4.5504    0.6201    1.7160 C   0  0  0  0  0  0  0  0  0  0  0  0 
    6.5081   -0.8255    1.3527 C   0  0  0  0  0  0  0  0  0  0  0  0 
    8.7330    0.3795    1.0136 N   0  0  0  0  0  0  0  0  0  0  0  0 
    3.1659    0.7508    1.9716 N   0  0  0  0  0  0  0  0  0  0  0  0 
    7.0469   -2.0605    1.2177 O   0  0  0  0  0  0  0  0  0  0  0  0 
    9.3196   -0.6907    0.8764 O   0  0  0  0  0  0  0  0  0  0  0  0 
    0.9860    3.0426    0.5284 H   0  0  0  0  0  0  0  0  0  0  0  0 
    2.0632    3.3675    1.8975 H   0  0  0  0  0  0  0  0  0  0  0  0 
    0.7042    2.2564    2.0860 H   0  0  0  0  0  0  0  0  0  0  0  0 
    0.8477   -1.0122    3.7994 H   0  0  0  0  0  0  0  0  0  0  0  0 
    0.3913    0.1726    2.5766 H   0  0  0  0  0  0  0  0  0  0  0  0 
    1.3128    0.6889    4.0061 H   0  0  0  0  0  0  0  0  0  0  0  0 
    5.6866    3.8586    2.0504 H   0  0  0  0  0  0  0  0  0  0  0  0 
    4.1873    3.1940    2.7281 H   0  0  0  0  0  0  0  0  0  0  0  0 
    4.2923    3.5780    1.0095 H   0  0  0  0  0  0  0  0  0  0  0  0 
    3.0771    1.8198    0.1714 H   0  0  0  0  0  0  0  0  0  0  0  0 
    1.7634    0.6878    0.4016 H   0  0  0  0  0  0  0  0  0  0  0  0 
    2.3186   -1.2006    1.7978 H   0  0  0  0  0  0  0  0  0  0  0  0 
    3.1972   -0.8451    3.2922 H   0  0  0  0  0  0  0  0  0  0  0  0 
    7.3992    2.4352    1.3208 H   0  0  0  0  0  0  0  0  0  0  0  0 
    4.5221   -1.5405    1.6329 H   0  0  0  0  0  0  0  0  0  0  0  0 
    6.3406   -2.7174    1.3368 H   0  0  0  0  0  0  0  0  0  0  0  0 
  1 17  1  0  0  0  0 
  1 18  1  0  0  0  0 
  2 19  1  0  0  0  0 
  2 21  1  0  0  0  0 
  3 22  1  0  0  0  0 
  3 23  1  0  0  0  0 
  4  1  1  0  0  0  0 
  4 13  1  0  0  0  0 
  5  2  1  0  0  0  0 
  5 28  1  0  0  0  0 
  6  8  2  0  0  0  0 
  7 30  1  0  0  0  0 
  7 10  2  0  0  0  0 
  8 10  1  0  0  0  0 
  8  3  1  0  0  0  0 
  9 11  2  0  0  0  0 
  9  6  1  0  0  0  0 
 10 13  1  0  0  0  0 
 11  7  1  0  0  0  0 
 12  9  1  0  0  0  0 
 13  5  1  0  0  0  0 
 14 31  1  0  0  0  0 
 14 11  1  0  0  0  0 
 15 12  2  0  0  0  0 
 16  1  1  0  0  0  0 
 20  2  1  0  0  0  0 
 24  3  1  0  0  0  0 
 25  4  1  0  0  0  0 
 26  4  1  0  0  0  0 
 27  5  1  0  0  0  0 
 29  6  1  0  0  0  0 
M  END 
>  <HBA> 
4 
 
>  <HBD> 
1 
 
>  <TPSA> 
52.9 
 
>  <cid> 
22637 
 
>  <dipole> 
7.22 
 
>  <excitation_energy_1> 
1.532 
 
>  <excitation_energy_2> 
3.568 
 
>  <excitation_energy_3> 
3.784 
 
>  <excitation_energy_4> 
4.12 
 
>  <homo_energy> 
-5.119 
 
>  <homo_lumo_gap> 
3.2 
 
>  <logP> 
2.945 
 
>  <lumo_energy> 
-1.918 
 
>  <melting_point> 
85.24 
 
>  <molecular_refractivity> 
62.71 
 
>  <oscillator_strength_1> 
0.0003 
 
>  <oscillator_strength_2> 
0.2301 
 
>  <oscillator_strength_3> 
0.1145 
 
>  <oscillator_strength_4> 
0.0005 
 
>  <open_babel_can_smiles> 
CCN(c1cc(O)c(cc1C)N=O)CC 
 
>  <mulliken_charges> 
31 
1   -0.444723 
2   -0.456475 
3   -0.536607 
4   -0.146131 
5   -0.128304 
6   -0.229344 
7   -0.271286 
8   0.161247 
9   0.238113 
10   0.257398 
11   0.352073 
12   -0.100561 
13   -0.469206 
14   -0.604127 
15   -0.30508 
16   0.144648 
17   0.160458 
18   0.154868 
19   0.151385 
20   0.156005 
21   0.162198 
22   0.161534 
23   0.169835 
24   0.15814 
25   0.161453 
26   0.140681 
27   0.126462 
28   0.158309 
29   0.14744 
30   0.12197 
31   0.407628 
 
>  <lowdin_charges> 
31 
1   -0.458759 
2   -0.451903 
3   -0.442439 
4   -0.192749 
5   -0.199019 
6   -0.132149 
7   -0.253964 
8   -0.044409 
9   -0.058583 
10   0.071101 
11   0.121734 
12   0.027281 
13   -0.140424 
14   -0.335294 
15   -0.200119 
16   0.154375 
17   0.158047 
18   0.155602 
19   0.158241 
20   0.153428 
21   0.158647 
22   0.161747 
23   0.162931 
24   0.156219 
25   0.159336 
26   0.14169 
27   0.125371 
28   0.156636 
29   0.171522 
30   0.158198 
31   0.357706 
 
$$$$ 
 
