PCCDB-ID:  29136 
public computational chemistry database (PCCDB) project, http://pccdb.org 
 
 22 22  0  0  0  0  0  0  0  0999 V2000 
    1.6611   -0.2577   -0.4989 C   0  0  0  0  0  0  0  0  0  0  0  0 
    5.3566   -1.7722    4.4961 C   0  0  0  0  0  0  0  0  0  0  0  0 
    4.4715    2.0229    2.8462 C   0  0  0  0  0  0  0  0  0  0  0  0 
    3.6256    2.1053    1.7500 C   0  0  0  0  0  0  0  0  0  0  0  0 
    4.8046    0.7990    3.4384 C   0  0  0  0  0  0  0  0  0  0  0  0 
    3.4045   -0.3102    1.7930 C   0  0  0  0  0  0  0  0  0  0  0  0 
    3.0841    0.9192    1.2163 C   0  0  0  0  0  0  0  0  0  0  0  0 
    4.2627   -0.3702    2.9016 C   0  0  0  0  0  0  0  0  0  0  0  0 
    1.9158    2.1797   -0.4070 N   0  0  0  0  0  0  0  0  0  0  0  0 
    2.2131    0.9541    0.0955 N   0  0  0  0  0  0  0  0  0  0  0  0 
    1.1661    2.1912   -1.3725 O   0  0  0  0  0  0  0  0  0  0  0  0 
    4.4983   -1.6284    3.3749 O   0  0  0  0  0  0  0  0  0  0  0  0 
    1.0497   -0.7971    0.2311 H   0  0  0  0  0  0  0  0  0  0  0  0 
    2.4663   -0.9089   -0.8525 H   0  0  0  0  0  0  0  0  0  0  0  0 
    1.0429    0.0591   -1.3378 H   0  0  0  0  0  0  0  0  0  0  0  0 
    5.4012   -2.8430    4.7026 H   0  0  0  0  0  0  0  0  0  0  0  0 
    4.9612   -1.2488    5.3764 H   0  0  0  0  0  0  0  0  0  0  0  0 
    6.3672   -1.4015    4.2802 H   0  0  0  0  0  0  0  0  0  0  0  0 
    4.8893    2.9377    3.2577 H   0  0  0  0  0  0  0  0  0  0  0  0 
    3.3805    3.0604    1.3069 H   0  0  0  0  0  0  0  0  0  0  0  0 
    5.4699    0.7742    4.2929 H   0  0  0  0  0  0  0  0  0  0  0  0 
    3.0113   -1.2456    1.4160 H   0  0  0  0  0  0  0  0  0  0  0  0 
  1 10  1  0  0  0  0 
  1 13  1  0  0  0  0 
  2 16  1  0  0  0  0 
  2 17  1  0  0  0  0 
  3 19  1  0  0  0  0 
  3  5  2  0  0  0  0 
  4  3  1  0  0  0  0 
  5 21  1  0  0  0  0 
  6  8  2  0  0  0  0 
  7  4  2  0  0  0  0 
  7  6  1  0  0  0  0 
  8 12  1  0  0  0  0 
  8  5  1  0  0  0  0 
  9 10  1  0  0  0  0 
 10  7  1  0  0  0  0 
 11  9  2  0  0  0  0 
 12  2  1  0  0  0  0 
 14  1  1  0  0  0  0 
 15  1  1  0  0  0  0 
 18  2  1  0  0  0  0 
 20  4  1  0  0  0  0 
 22  6  1  0  0  0  0 
M  END 
>  <HBA> 
4 
 
>  <HBD> 
0 
 
>  <TPSA> 
41.9 
 
>  <cid> 
29136 
 
>  <dipole> 
4.32 
 
>  <excitation_energy_1> 
3.134 
 
>  <excitation_energy_2> 
3.916 
 
>  <excitation_energy_3> 
4.461 
 
>  <excitation_energy_4> 
5.163 
 
>  <homo_energy> 
-5.987 
 
>  <homo_lumo_gap> 
4.566 
 
>  <logP> 
1.813 
 
>  <lumo_energy> 
-1.42 
 
>  <melting_point> 
38.49 
 
>  <molecular_refractivity> 
47.07 
 
>  <oscillator_strength_1> 
0.0009 
 
>  <oscillator_strength_2> 
0.0413 
 
>  <oscillator_strength_3> 
0.1712 
 
>  <oscillator_strength_4> 
0.2184 
 
>  <open_babel_can_smiles> 
O=NN(c1cccc(c1)OC)C 
 
>  <mulliken_charges> 
22 
1   -0.349609 
2   -0.216267 
3   -0.147589 
4   -0.161713 
5   -0.195348 
6   -0.249995 
7   0.360747 
8   0.382594 
9   0.181342 
10   -0.359523 
11   -0.368479 
12   -0.509566 
13   0.1789 
14   0.179052 
15   0.215128 
16   0.171744 
17   0.154517 
18   0.154448 
19   0.137364 
20   0.164831 
21   0.132852 
22   0.14457 
 
>  <lowdin_charges> 
22 
1   -0.38284 
2   -0.275197 
3   -0.135855 
4   -0.196025 
5   -0.223179 
6   -0.218545 
7   0.058437 
8   0.109672 
9   0.065154 
10   -0.017892 
11   -0.243826 
12   -0.197972 
13   0.167943 
14   0.167921 
15   0.189488 
16   0.162338 
17   0.147137 
18   0.145585 
19   0.162612 
20   0.177902 
21   0.163967 
22   0.173176 
 
$$$$ 
 
