PCCDB-ID:  16030 
public computational chemistry database (PCCDB) project, http://pccdb.org 
 
 28 27  0  0  0  0  0  0  0  0999 V2000 
    0.9011    0.0238    0.3062 C   0  0  0  0  0  0  0  0  0  0  0  0 
    4.1846    4.2061   -7.6320 C   0  0  0  0  0  0  0  0  0  0  0  0 
    2.4155   -0.1372    0.1426 C   0  0  0  0  0  0  0  0  0  0  0  0 
    5.2964    3.5596   -6.8007 C   0  0  0  0  0  0  0  0  0  0  0  0 
    2.9550    0.5393   -1.1225 C   0  0  0  0  0  0  0  0  0  0  0  0 
    4.7772    2.8740   -5.5322 C   0  0  0  0  0  0  0  0  0  0  0  0 
    4.4821    0.3772   -1.2818 C   0  0  0  0  0  0  0  0  0  0  0  0 
    5.9053    2.2310   -4.6978 C   0  0  0  0  0  0  0  0  0  0  0  0 
    5.0087    1.0213   -2.4871 C   0  0  0  0  0  0  0  0  0  0  0  0 
    5.4234    1.5653   -3.4856 C   0  0  0  0  0  0  0  0  0  0  0  0 
    0.5416   -0.4666    1.2181 H   0  0  0  0  0  0  0  0  0  0  0  0 
    0.3609   -0.4142   -0.5420 H   0  0  0  0  0  0  0  0  0  0  0  0 
    0.6192    1.0822    0.3653 H   0  0  0  0  0  0  0  0  0  0  0  0 
    4.5861    4.6870   -8.5311 H   0  0  0  0  0  0  0  0  0  0  0  0 
    3.6521    4.9713   -7.0541 H   0  0  0  0  0  0  0  0  0  0  0  0 
    3.4447    3.4634   -7.9554 H   0  0  0  0  0  0  0  0  0  0  0  0 
    2.6701   -1.2064    0.1205 H   0  0  0  0  0  0  0  0  0  0  0  0 
    2.9248    0.2802    1.0229 H   0  0  0  0  0  0  0  0  0  0  0  0 
    6.0350    4.3251   -6.5218 H   0  0  0  0  0  0  0  0  0  0  0  0 
    5.8362    2.8260   -7.4163 H   0  0  0  0  0  0  0  0  0  0  0  0 
    2.7129    1.6100   -1.1051 H   0  0  0  0  0  0  0  0  0  0  0  0 
    2.4588    0.1237   -2.0093 H   0  0  0  0  0  0  0  0  0  0  0  0 
    4.0464    2.0986   -5.7980 H   0  0  0  0  0  0  0  0  0  0  0  0 
    4.2424    3.6013   -4.9074 H   0  0  0  0  0  0  0  0  0  0  0  0 
    4.7325   -0.6936   -1.2931 H   0  0  0  0  0  0  0  0  0  0  0  0 
    4.9820    0.7919   -0.3942 H   0  0  0  0  0  0  0  0  0  0  0  0 
    6.6384    3.0045   -4.4249 H   0  0  0  0  0  0  0  0  0  0  0  0 
    6.4515    1.5110   -5.3246 H   0  0  0  0  0  0  0  0  0  0  0  0 
  1 13  1  0  0  0  0 
  1 11  1  0  0  0  0 
  2 15  1  0  0  0  0 
  2  4  1  0  0  0  0 
  3  1  1  0  0  0  0 
  3 18  1  0  0  0  0 
  4 19  1  0  0  0  0 
  4  6  1  0  0  0  0 
  5 21  1  0  0  0  0 
  5  3  1  0  0  0  0 
  6 24  1  0  0  0  0 
  6  8  1  0  0  0  0 
  7  5  1  0  0  0  0 
  7 26  1  0  0  0  0 
  8 27  1  0  0  0  0 
  8 10  1  0  0  0  0 
  9  7  1  0  0  0  0 
 10  9  3  0  0  0  0 
 12  1  1  0  0  0  0 
 14  2  1  0  0  0  0 
 16  2  1  0  0  0  0 
 17  3  1  0  0  0  0 
 20  4  1  0  0  0  0 
 22  5  1  0  0  0  0 
 23  6  1  0  0  0  0 
 25  7  1  0  0  0  0 
 28  8  1  0  0  0  0 
M  END 
>  <HBA> 
0 
 
>  <HBD> 
0 
 
>  <TPSA> 
0.0 
 
>  <cid> 
16030 
 
>  <dipole> 
0.24 
 
>  <excitation_energy_1> 
6.3 
 
>  <excitation_energy_2> 
6.327 
 
>  <excitation_energy_3> 
6.362 
 
>  <excitation_energy_4> 
6.45 
 
>  <homo_energy> 
-6.455 
 
>  <homo_lumo_gap> 
8.144 
 
>  <logP> 
3.37 
 
>  <lumo_energy> 
1.69 
 
>  <melting_point> 
-11.87 
 
>  <molecular_refractivity> 
48.35 
 
>  <oscillator_strength_1> 
0.0001 
 
>  <oscillator_strength_2> 
0.0061 
 
>  <oscillator_strength_3> 
0.0209 
 
>  <oscillator_strength_4> 
0.0468 
 
>  <open_babel_can_smiles> 
CCCCC#CCCCC 
 
>  <mulliken_charges> 
28 
1   -0.441912 
2   -0.442023 
3   -0.244699 
4   -0.244699 
5   -0.247019 
6   -0.246934 
7   -0.400951 
8   -0.401608 
9   0.03949 
10   0.042922 
11   0.142759 
12   0.143283 
13   0.143246 
14   0.142824 
15   0.143339 
16   0.143304 
17   0.131447 
18   0.131421 
19   0.131305 
20   0.13151 
21   0.141118 
22   0.14117 
23   0.141141 
24   0.141077 
25   0.159454 
26   0.159682 
27   0.159666 
28   0.159688 
 
>  <lowdin_charges> 
28 
1   -0.443682 
2   -0.446185 
3   -0.272379 
4   -0.275788 
5   -0.266885 
6   -0.270574 
7   -0.258342 
8   -0.260721 
9   -0.089851 
10   -0.090677 
11   0.15031 
12   0.148182 
13   0.145975 
14   0.150457 
15   0.14859 
16   0.148239 
17   0.137821 
18   0.140106 
19   0.140229 
20   0.140892 
21   0.143928 
22   0.146227 
23   0.14641 
24   0.147004 
25   0.158177 
26   0.160497 
27   0.160718 
28   0.161323 
 
$$$$ 
 
