PCCDB-ID:  38907 
public computational chemistry database (PCCDB) project, http://pccdb.org 
 
 28 31  0  0  1  0  0  0  0  0999 V2000 
    2.5093   -1.7066    3.8158 C   0  0  0  0  0  0  0  0  0  0  0  0 
    2.5897   -1.2795    2.4177 C   0  0  0  0  0  0  0  0  0  0  0  0 
    1.7787   -7.2585    3.7109 C   0  0  0  0  0  0  0  0  0  0  0  0 
    1.7052   -5.7491   -0.9022 C   0  0  0  0  0  0  0  0  0  0  0  0 
    1.9534   -7.6023    2.3830 C   0  0  0  0  0  0  0  0  0  0  0  0 
    1.9146   -6.8094   -0.0397 C   0  0  0  0  0  0  0  0  0  0  0  0 
    1.7119   -2.7132    4.1984 C   0  0  0  0  0  0  0  0  0  0  0  0 
    1.8501   -1.8578    1.4617 C   0  0  0  0  0  0  0  0  0  0  0  0 
    1.4238   -5.9410    4.1153 C   0  0  0  0  0  0  0  0  0  0  0  0 
    1.3588   -4.4489   -0.4386 C   0  0  0  0  0  0  0  0  0  0  0  0 
    1.7812   -6.6255    1.3640 C   0  0  0  0  0  0  0  0  0  0  0  0 
    0.8513   -3.4987    3.2353 C   0  0  1  0  0  0  0  0  0  0  0  0 
    0.8845   -2.9913    1.7301 C   0  0  2  0  0  0  0  0  0  0  0  0 
    1.2537   -4.9744    3.1497 C   0  0  0  0  0  0  0  0  0  0  0  0 
    1.2283   -4.2412    0.9162 C   0  0  0  0  0  0  0  0  0  0  0  0 
    1.4379   -5.3225    1.7960 C   0  0  0  0  0  0  0  0  0  0  0  0 
    3.1185   -1.1841    4.5496 H   0  0  0  0  0  0  0  0  0  0  0  0 
    3.2698   -0.4695    2.1652 H   0  0  0  0  0  0  0  0  0  0  0  0 
    1.9131   -8.0185    4.4766 H   0  0  0  0  0  0  0  0  0  0  0  0 
    1.8089   -5.9086   -1.9726 H   0  0  0  0  0  0  0  0  0  0  0  0 
    2.2224   -8.6207    2.1133 H   0  0  0  0  0  0  0  0  0  0  0  0 
    2.1813   -7.7879   -0.4319 H   0  0  0  0  0  0  0  0  0  0  0  0 
    1.6729   -3.0197    5.2418 H   0  0  0  0  0  0  0  0  0  0  0  0 
    1.9289   -1.5278    0.4277 H   0  0  0  0  0  0  0  0  0  0  0  0 
    1.2912   -5.7241    5.1723 H   0  0  0  0  0  0  0  0  0  0  0  0 
    1.2039   -3.6484   -1.1580 H   0  0  0  0  0  0  0  0  0  0  0  0 
   -0.1854   -3.4493    3.6000 H   0  0  0  0  0  0  0  0  0  0  0  0 
   -0.1200   -2.6460    1.4431 H   0  0  0  0  0  0  0  0  0  0  0  0 
  1  7  2  0  0  0  0 
  1 17  1  0  0  0  0 
  2  1  1  0  0  0  0 
  3  9  1  0  0  0  0 
  3 19  1  0  0  0  0 
  4 10  2  0  0  0  0 
  4  6  1  0  0  0  0 
  5  3  2  0  0  0  0 
  6 11  2  0  0  0  0 
  7 23  1  0  0  0  0 
  8 13  1  0  0  0  0 
  8  2  2  0  0  0  0 
  9 25  1  0  0  0  0 
 10 15  1  0  0  0  0 
 11 16  1  0  0  0  0 
 11  5  1  0  0  0  0 
 12 27  1  1  0  0  0 
 12  7  1  0  0  0  0 
 13 28  1  6  0  0  0 
 13 12  1  0  0  0  0 
 14 12  1  0  0  0  0 
 14  9  2  0  0  0  0 
 15 13  1  0  0  0  0 
 15 16  2  0  0  0  0 
 16 14  1  0  0  0  0 
 18  2  1  0  0  0  0 
 20  4  1  0  0  0  0 
 21  5  1  0  0  0  0 
 22  6  1  0  0  0  0 
 24  8  1  0  0  0  0 
 26 10  1  0  0  0  0 
M  END 
>  <HBA> 
0 
 
>  <HBD> 
0 
 
>  <TPSA> 
0.0 
 
>  <cid> 
38907 
 
>  <dipole> 
0.46 
 
>  <excitation_energy_1> 
4.002 
 
>  <excitation_energy_2> 
4.097 
 
>  <excitation_energy_3> 
4.286 
 
>  <excitation_energy_4> 
4.372 
 
>  <homo_energy> 
-5.51 
 
>  <homo_lumo_gap> 
4.686 
 
>  <logP> 
4.147 
 
>  <lumo_energy> 
-0.825 
 
>  <melting_point> 
119.41 
 
>  <molecular_refractivity> 
67.93 
 
>  <oscillator_strength_1> 
0.0006 
 
>  <oscillator_strength_2> 
0.0453 
 
>  <oscillator_strength_3> 
0.0648 
 
>  <oscillator_strength_4> 
0.006 
 
>  <open_babel_can_smiles> 
C1=C[C@@H]2[C@H](C=C1)c1c3c2cccc3ccc1 
 
>  <mulliken_charges> 
28 
1   -0.119097 
2   -0.121105 
3   -0.127143 
4   -0.127676 
5   -0.211202 
6   -0.210819 
7   -0.1067 
8   -0.103735 
9   -0.224758 
10   -0.223599 
11   0.195292 
12   -0.240055 
13   -0.238193 
14   0.141991 
15   0.135039 
16   0.001235 
17   0.125849 
18   0.125923 
19   0.126981 
20   0.127021 
21   0.126983 
22   0.127038 
23   0.12857 
24   0.129532 
25   0.122859 
26   0.123047 
27   0.159052 
28   0.157672 
 
>  <lowdin_charges> 
28 
1   -0.172981 
2   -0.172137 
3   -0.152482 
4   -0.149237 
5   -0.165668 
6   -0.166141 
7   -0.152271 
8   -0.150512 
9   -0.17604 
10   -0.179792 
11   0.001941 
12   -0.119253 
13   -0.119806 
14   0.004025 
15   0.004361 
16   -0.012853 
17   0.157982 
18   0.157109 
19   0.158407 
20   0.155658 
21   0.156042 
22   0.156674 
23   0.154203 
24   0.154585 
25   0.153796 
26   0.156225 
27   0.159376 
28   0.158791 
 
$$$$ 
 
