PCCDB-ID:  66971 
public computational chemistry database (PCCDB) project, http://pccdb.org 
 
 15 15  0  0  0  0  0  0  0  0999 V2000 
    0.6873    1.2110   -0.2534 C   0  0  0  0  0  0  0  0  0  0  0  0 
    0.6882   -1.1844   -0.1868 C   0  0  0  0  0  0  0  0  0  0  0  0 
   -1.3926    0.0042   -0.2399 C   0  0  0  0  0  0  0  0  0  0  0  0 
    1.4251    0.0316    0.1792 N   0  0  0  0  0  0  0  0  0  0  0  0 
   -0.6918    1.1975    0.2601 N   0  0  0  0  0  0  0  0  0  0  0  0 
   -0.7299   -1.2189    0.1931 N   0  0  0  0  0  0  0  0  0  0  0  0 
    0.7221    1.2216   -1.3595 H   0  0  0  0  0  0  0  0  0  0  0  0 
    1.1942    2.1118    0.1078 H   0  0  0  0  0  0  0  0  0  0  0  0 
    1.1938   -2.0512    0.2489 H   0  0  0  0  0  0  0  0  0  0  0  0 
    0.7372   -1.2808   -1.2789 H   0  0  0  0  0  0  0  0  0  0  0  0 
   -1.4308   -0.0269   -1.3455 H   0  0  0  0  0  0  0  0  0  0  0  0 
   -2.4225    0.0126    0.1319 H   0  0  0  0  0  0  0  0  0  0  0  0 
    1.5052    0.0691    1.1961 H   0  0  0  0  0  0  0  0  0  0  0  0 
   -1.1837    2.0423   -0.0326 H   0  0  0  0  0  0  0  0  0  0  0  0 
   -0.7916   -1.2630    1.2110 H   0  0  0  0  0  0  0  0  0  0  0  0 
  1  8  1  0  0  0  0 
  1  4  1  0  0  0  0 
  1  5  1  0  0  0  0 
  2  4  1  0  0  0  0 
  2  6  1  0  0  0  0 
  2  9  1  0  0  0  0 
  3 12  1  0  0  0  0 
  3  6  1  0  0  0  0 
  3  5  1  0  0  0  0 
  4 13  1  0  0  0  0 
  6 15  1  0  0  0  0 
  7  1  1  0  0  0  0 
 10  2  1  0  0  0  0 
 11  3  1  0  0  0  0 
 14  5  1  0  0  0  0 
M  END 
>  <HBA> 
3 
 
>  <HBD> 
3 
 
>  <TPSA> 
36.09 
 
>  <cid> 
66971 
 
>  <dipole> 
1.32 
 
>  <excitation_energy_1> 
5.324 
 
>  <excitation_energy_2> 
5.575 
 
>  <excitation_energy_3> 
5.692 
 
>  <excitation_energy_4> 
5.965 
 
>  <homo_energy> 
-5.821 
 
>  <homo_lumo_gap> 
8.022 
 
>  <logP> 
-0.372 
 
>  <lumo_energy> 
2.201 
 
>  <melting_point> 
79.55 
 
>  <molecular_refractivity> 
34.57 
 
>  <oscillator_strength_1> 
0.0104 
 
>  <oscillator_strength_2> 
0.0 
 
>  <oscillator_strength_3> 
0.0029 
 
>  <oscillator_strength_4> 
0.0357 
 
>  <open_babel_can_smiles> 
N1CNCNC1 
 
>  <mulliken_charges> 
15 
1   -0.031994 
2   -0.069646 
3   -0.032204 
4   -0.510406 
5   -0.55305 
6   -0.510313 
7   0.124528 
8   0.144803 
9   0.149708 
10   0.152577 
11   0.124546 
12   0.144857 
13   0.28828 
14   0.290101 
15   0.288211 
 
>  <lowdin_charges> 
15 
1   -0.145635 
2   -0.158437 
3   -0.144698 
4   -0.359515 
5   -0.402579 
6   -0.359815 
7   0.118024 
8   0.147449 
9   0.150893 
10   0.142375 
11   0.11802 
12   0.145645 
13   0.247 
14   0.254329 
15   0.246944 
 
$$$$ 
 
