PCCDB-ID:  22249 
public computational chemistry database (PCCDB) project, http://pccdb.org 
 
 24 25  0  0  0  0  0  0  0  0999 V2000 
    0.9617    0.0985   -0.1793 C   0  0  0  0  0  0  0  0  0  0  0  0 
    3.2004    0.1123    4.3614 C   0  0  0  0  0  0  0  0  0  0  0  0 
    3.0855   -1.0979    3.6756 C   0  0  0  0  0  0  0  0  0  0  0  0 
    3.0916    1.3129    3.6575 C   0  0  0  0  0  0  0  0  0  0  0  0 
    2.8665   -1.1052    2.2973 C   0  0  0  0  0  0  0  0  0  0  0  0 
    2.8724    1.3005    2.2794 C   0  0  0  0  0  0  0  0  0  0  0  0 
    3.2287    1.1220   -0.7984 C   0  0  0  0  0  0  0  0  0  0  0  0 
    3.2052   -0.9850   -0.7823 C   0  0  0  0  0  0  0  0  0  0  0  0 
    2.7591    0.0926    1.5772 C   0  0  0  0  0  0  0  0  0  0  0  0 
    2.4756    0.0834    0.0904 C   0  0  0  0  0  0  0  0  0  0  0  0 
    3.4496    0.0582   -1.8060 N   0  0  0  0  0  0  0  0  0  0  0  0 
    0.7676    0.0935   -1.2574 H   0  0  0  0  0  0  0  0  0  0  0  0 
    0.4979    0.9922    0.2546 H   0  0  0  0  0  0  0  0  0  0  0  0 
    0.4784   -0.7790    0.2663 H   0  0  0  0  0  0  0  0  0  0  0  0 
    3.3763    0.1200    5.4338 H   0  0  0  0  0  0  0  0  0  0  0  0 
    3.1698   -2.0391    4.2130 H   0  0  0  0  0  0  0  0  0  0  0  0 
    3.1808    2.2616    4.1808 H   0  0  0  0  0  0  0  0  0  0  0  0 
    2.7792   -2.0550    1.7744 H   0  0  0  0  0  0  0  0  0  0  0  0 
    2.7898    2.2427    1.7422 H   0  0  0  0  0  0  0  0  0  0  0  0 
    4.1454    1.4876   -0.3117 H   0  0  0  0  0  0  0  0  0  0  0  0 
    2.6533    1.9812   -1.1667 H   0  0  0  0  0  0  0  0  0  0  0  0 
    2.6106   -1.8366   -1.1376 H   0  0  0  0  0  0  0  0  0  0  0  0 
    4.1137   -1.3635   -0.2904 H   0  0  0  0  0  0  0  0  0  0  0  0 
    4.3807    0.0446   -2.2169 H   0  0  0  0  0  0  0  0  0  0  0  0 
  1 10  1  0  0  0  0 
  1 13  1  0  0  0  0 
  1 14  1  0  0  0  0 
  2 15  1  0  0  0  0 
  3 16  1  0  0  0  0 
  3  2  1  0  0  0  0 
  4 17  1  0  0  0  0 
  4  2  2  0  0  0  0 
  5  3  2  0  0  0  0 
  6  4  1  0  0  0  0 
  7 20  1  0  0  0  0 
  7 10  1  0  0  0  0 
  8 23  1  0  0  0  0 
  8 10  1  0  0  0  0 
  9  6  2  0  0  0  0 
  9  5  1  0  0  0  0 
 10  9  1  0  0  0  0 
 11  7  1  0  0  0  0 
 11  8  1  0  0  0  0 
 12  1  1  0  0  0  0 
 18  5  1  0  0  0  0 
 19  6  1  0  0  0  0 
 21  7  1  0  0  0  0 
 22  8  1  0  0  0  0 
 24 11  1  0  0  0  0 
M  END 
>  <HBA> 
1 
 
>  <HBD> 
1 
 
>  <TPSA> 
12.03 
 
>  <cid> 
22249 
 
>  <dipole> 
1.08 
 
>  <excitation_energy_1> 
5.169 
 
>  <excitation_energy_2> 
5.266 
 
>  <excitation_energy_3> 
5.401 
 
>  <excitation_energy_4> 
5.462 
 
>  <homo_energy> 
-5.965 
 
>  <homo_lumo_gap> 
6.014 
 
>  <logP> 
1.876 
 
>  <lumo_energy> 
0.049 
 
>  <melting_point> 
61.86 
 
>  <molecular_refractivity> 
50.31 
 
>  <oscillator_strength_1> 
0.0014 
 
>  <oscillator_strength_2> 
0.0154 
 
>  <oscillator_strength_3> 
0.0002 
 
>  <oscillator_strength_4> 
0.0 
 
>  <open_babel_can_smiles> 
CC1(CNC1)c1ccccc1 
 
>  <mulliken_charges> 
24 
1   -0.448727 
2   -0.130568 
3   -0.130079 
4   -0.130018 
5   -0.182162 
6   -0.181812 
7   -0.135947 
8   -0.136184 
9   0.14391 
10   -0.010161 
11   -0.565719 
12   0.163621 
13   0.145096 
14   0.145141 
15   0.127255 
16   0.127919 
17   0.127918 
18   0.126524 
19   0.126469 
20   0.126697 
21   0.135549 
22   0.135628 
23   0.126593 
24   0.293057 
 
>  <lowdin_charges> 
24 
1   -0.435308 
2   -0.15981 
3   -0.155223 
4   -0.155094 
5   -0.169132 
6   -0.169065 
7   -0.207214 
8   -0.207445 
9   -0.00165 
10   0.004762 
11   -0.376802 
12   0.158237 
13   0.15119 
14   0.151343 
15   0.154896 
16   0.156846 
17   0.156772 
18   0.155837 
19   0.15589 
20   0.132278 
21   0.138712 
22   0.138786 
23   0.132333 
24   0.248859 
 
$$$$ 
 
