PCCDB-ID:  7465 
public computational chemistry database (PCCDB) project, http://pccdb.org 
 
 22 22  0  0  0  0  0  0  0  0999 V2000 
    3.8387    0.6691    0.7002 C   0  0  0  0  0  0  0  0  0  0  0  0 
    1.9226    0.9954   -0.9315 C   0  0  0  0  0  0  0  0  0  0  0  0 
    2.3478   -2.5001   -0.1192 C   0  0  0  0  0  0  0  0  0  0  0  0 
    3.8054   -1.4141   -1.6785 C   0  0  0  0  0  0  0  0  0  0  0  0 
    2.6357   -3.7371   -0.6996 C   0  0  0  0  0  0  0  0  0  0  0  0 
    4.1048   -2.6370   -2.2701 C   0  0  0  0  0  0  0  0  0  0  0  0 
    2.5967    0.0243    0.0562 C   0  0  0  0  0  0  0  0  0  0  0  0 
    2.9217   -1.3154   -0.5911 C   0  0  0  0  0  0  0  0  0  0  0  0 
    3.5177   -3.8086   -1.7798 C   0  0  0  0  0  0  0  0  0  0  0  0 
    3.8450   -4.9870   -2.3973 O   0  0  0  0  0  0  0  0  0  0  0  0 
    3.5714    1.6006    1.2138 H   0  0  0  0  0  0  0  0  0  0  0  0 
    4.5964    0.9123   -0.0544 H   0  0  0  0  0  0  0  0  0  0  0  0 
    4.3006   -0.0041    1.4306 H   0  0  0  0  0  0  0  0  0  0  0  0 
    1.6307    1.9236   -0.4256 H   0  0  0  0  0  0  0  0  0  0  0  0 
    1.0252    0.5504   -1.3750 H   0  0  0  0  0  0  0  0  0  0  0  0 
    2.6006    1.2639   -1.7508 H   0  0  0  0  0  0  0  0  0  0  0  0 
    1.6584   -2.4619    0.7216 H   0  0  0  0  0  0  0  0  0  0  0  0 
    4.2730   -0.5167   -2.0764 H   0  0  0  0  0  0  0  0  0  0  0  0 
    2.1737   -4.6435   -0.3109 H   0  0  0  0  0  0  0  0  0  0  0  0 
    4.7887   -2.7045   -3.1107 H   0  0  0  0  0  0  0  0  0  0  0  0 
    1.8765   -0.1750    0.8621 H   0  0  0  0  0  0  0  0  0  0  0  0 
    3.3707   -5.7108   -1.9597 H   0  0  0  0  0  0  0  0  0  0  0  0 
  1 11  1  0  0  0  0 
  1 13  1  0  0  0  0 
  2 14  1  0  0  0  0 
  2  7  1  0  0  0  0 
  3 17  1  0  0  0  0 
  4  8  2  0  0  0  0 
  5 19  1  0  0  0  0 
  5  3  2  0  0  0  0 
  6  9  2  0  0  0  0 
  6  4  1  0  0  0  0 
  7  1  1  0  0  0  0 
  7 21  1  0  0  0  0 
  8  3  1  0  0  0  0 
  8  7  1  0  0  0  0 
  9  5  1  0  0  0  0 
 10 22  1  0  0  0  0 
 10  9  1  0  0  0  0 
 12  1  1  0  0  0  0 
 15  2  1  0  0  0  0 
 16  2  1  0  0  0  0 
 18  4  1  0  0  0  0 
 20  6  1  0  0  0  0 
M  END 
>  <HBA> 
1 
 
>  <HBD> 
1 
 
>  <TPSA> 
20.23 
 
>  <cid> 
7465 
 
>  <dipole> 
1.37 
 
>  <excitation_energy_1> 
4.947 
 
>  <excitation_energy_2> 
5.073 
 
>  <excitation_energy_3> 
5.516 
 
>  <excitation_energy_4> 
5.714 
 
>  <homo_energy> 
-5.758 
 
>  <homo_lumo_gap> 
5.821 
 
>  <logP> 
2.516 
 
>  <lumo_energy> 
0.063 
 
>  <melting_point> 
46.8 
 
>  <molecular_refractivity> 
43.05 
 
>  <oscillator_strength_1> 
0.0338 
 
>  <oscillator_strength_2> 
0.0 
 
>  <oscillator_strength_3> 
0.0039 
 
>  <oscillator_strength_4> 
0.0831 
 
>  <open_babel_can_smiles> 
CC(c1ccc(cc1)O)C 
 
>  <mulliken_charges> 
22 
1   -0.43668 
2   -0.437777 
3   -0.204856 
4   -0.192571 
5   -0.190903 
6   -0.158373 
7   -0.160084 
8   0.187004 
9   0.34705 
10   -0.645057 
11   0.139199 
12   0.142095 
13   0.148128 
14   0.139402 
15   0.148493 
16   0.14209 
17   0.123226 
18   0.125784 
19   0.115103 
20   0.137166 
21   0.125878 
22   0.405681 
 
>  <lowdin_charges> 
22 
1   -0.444203 
2   -0.443647 
3   -0.158221 
4   -0.154044 
5   -0.216717 
6   -0.183496 
7   -0.117776 
8   -0.021036 
9   0.099335 
10   -0.383917 
11   0.147263 
12   0.14767 
13   0.153297 
14   0.147523 
15   0.152698 
16   0.147468 
17   0.154484 
18   0.156039 
19   0.15207 
20   0.166031 
21   0.141277 
22   0.357902 
 
$$$$ 
 
