PCCDB-ID:  13150 
public computational chemistry database (PCCDB) project, http://pccdb.org 
 
 19 18  0  0  0  0  0  0  0  0999 V2000 
    1.3144    0.2751    0.8341 C   0  0  0  0  0  0  0  0  0  0  0  0 
    3.8298    0.2232    1.1694 C   0  0  0  0  0  0  0  0  0  0  0  0 
    2.6869   -1.6008   -0.1484 C   0  0  0  0  0  0  0  0  0  0  0  0 
    2.8616    0.6896   -1.1065 C   0  0  0  0  0  0  0  0  0  0  0  0 
    2.8975    2.2443   -1.0307 C   0  0  0  0  0  0  0  0  0  0  0  0 
    2.6730   -0.1015    0.1929 C   0  0  0  0  0  0  0  0  0  0  0  0 
    2.9835    0.1735   -2.1958 O   0  0  0  0  0  0  0  0  0  0  0  0 
    3.1031    2.7824   -2.2443 O   0  0  0  0  0  0  0  0  0  0  0  0 
    2.7589    2.9045   -0.0227 O   0  0  0  0  0  0  0  0  0  0  0  0 
    1.1650   -0.3299    1.7359 H   0  0  0  0  0  0  0  0  0  0  0  0 
    0.4827    0.0634    0.1516 H   0  0  0  0  0  0  0  0  0  0  0  0 
    1.2783    1.3292    1.1160 H   0  0  0  0  0  0  0  0  0  0  0  0 
    3.7119   -0.3792    2.0775 H   0  0  0  0  0  0  0  0  0  0  0  0 
    3.8361    1.2774    1.4537 H   0  0  0  0  0  0  0  0  0  0  0  0 
    4.8018   -0.0295    0.7289 H   0  0  0  0  0  0  0  0  0  0  0  0 
    2.5524   -2.1865    0.7677 H   0  0  0  0  0  0  0  0  0  0  0  0 
    3.6331   -1.8963   -0.6121 H   0  0  0  0  0  0  0  0  0  0  0  0 
    1.8836   -1.8592   -0.8449 H   0  0  0  0  0  0  0  0  0  0  0  0 
    3.1104    3.7498   -2.1122 H   0  0  0  0  0  0  0  0  0  0  0  0 
  1 12  1  0  0  0  0 
  1 10  1  0  0  0  0 
  2 14  1  0  0  0  0 
  2 13  1  0  0  0  0 
  3  6  1  0  0  0  0 
  3 16  1  0  0  0  0 
  4  5  1  0  0  0  0 
  4  6  1  0  0  0  0 
  5  9  2  0  0  0  0 
  6  1  1  0  0  0  0 
  6  2  1  0  0  0  0 
  7  4  2  0  0  0  0 
  8 19  1  0  0  0  0 
  8  5  1  0  0  0  0 
 11  1  1  0  0  0  0 
 15  2  1  0  0  0  0 
 17  3  1  0  0  0  0 
 18  3  1  0  0  0  0 
M  END 
>  <HBA> 
3 
 
>  <HBD> 
1 
 
>  <TPSA> 
54.37 
 
>  <cid> 
13150 
 
>  <dipole> 
1.24 
 
>  <excitation_energy_1> 
3.148 
 
>  <excitation_energy_2> 
4.913 
 
>  <excitation_energy_3> 
5.924 
 
>  <excitation_energy_4> 
5.985 
 
>  <homo_energy> 
-6.904 
 
>  <homo_lumo_gap> 
4.773 
 
>  <logP> 
0.686 
 
>  <lumo_energy> 
-2.131 
 
>  <melting_point> 
90.67 
 
>  <molecular_refractivity> 
32.67 
 
>  <oscillator_strength_1> 
0.0002 
 
>  <oscillator_strength_2> 
0.0005 
 
>  <oscillator_strength_3> 
0.0006 
 
>  <oscillator_strength_4> 
0.0202 
 
>  <open_babel_can_smiles> 
O=C(C(C)(C)C)C(=O)O 
 
>  <mulliken_charges> 
19 
1   -0.469079 
2   -0.469601 
3   -0.434373 
4   0.406719 
5   0.527886 
6   0.005069 
7   -0.413024 
8   -0.535086 
9   -0.44892 
10   0.151755 
11   0.149534 
12   0.181689 
13   0.152042 
14   0.180924 
15   0.149331 
16   0.139166 
17   0.154904 
18   0.15547 
19   0.415593 
 
>  <lowdin_charges> 
19 
1   -0.445307 
2   -0.444561 
3   -0.438518 
4   0.136955 
5   0.166554 
6   -0.009381 
7   -0.179586 
8   -0.316446 
9   -0.248704 
10   0.156386 
11   0.152761 
12   0.166158 
13   0.15651 
14   0.165845 
15   0.151704 
16   0.149848 
17   0.157261 
18   0.158269 
19   0.364252 
 
$$$$ 
 
