PCCDB-ID:  23846 
public computational chemistry database (PCCDB) project, http://pccdb.org 
 
 28 27  0  0  0  0  0  0  0  0999 V2000 
    4.1721    2.1226    1.2043 C   0  0  0  0  0  0  0  0  0  0  0  0 
    5.2926    1.2104    0.6948 C   0  0  0  0  0  0  0  0  0  0  0  0 
    4.7751   -0.0776    0.0414 C   0  0  0  0  0  0  0  0  0  0  0  0 
    5.8904   -0.9971   -0.4718 C   0  0  0  0  0  0  0  0  0  0  0  0 
    5.3690   -2.2760   -1.1397 C   0  0  0  0  0  0  0  0  0  0  0  0 
    6.4925   -3.1942   -1.6367 C   0  0  0  0  0  0  0  0  0  0  0  0 
    5.9899   -4.4846   -2.3209 C   0  0  0  0  0  0  0  0  0  0  0  0 
    5.2629   -4.2186   -3.6052 C   0  0  0  0  0  0  0  0  0  0  0  0 
    4.0109   -4.2983   -3.8626 N   0  0  0  0  0  0  0  0  0  0  0  0 
    6.0781   -3.8249   -4.6217 O   0  0  0  0  0  0  0  0  0  0  0  0 
    3.2606   -4.6934   -2.7225 O   0  0  0  0  0  0  0  0  0  0  0  0 
    4.5737    3.0323    1.6653 H   0  0  0  0  0  0  0  0  0  0  0  0 
    3.5565    1.6123    1.9554 H   0  0  0  0  0  0  0  0  0  0  0  0 
    3.5077    2.4287    0.3867 H   0  0  0  0  0  0  0  0  0  0  0  0 
    5.9605    0.9505    1.5285 H   0  0  0  0  0  0  0  0  0  0  0  0 
    5.9111    1.7601   -0.0291 H   0  0  0  0  0  0  0  0  0  0  0  0 
    4.1064    0.1829   -0.7927 H   0  0  0  0  0  0  0  0  0  0  0  0 
    4.1552   -0.6273    0.7654 H   0  0  0  0  0  0  0  0  0  0  0  0 
    6.5524   -1.2657    0.3653 H   0  0  0  0  0  0  0  0  0  0  0  0 
    6.5166   -0.4435   -1.1873 H   0  0  0  0  0  0  0  0  0  0  0  0 
    4.7151   -2.0072   -1.9808 H   0  0  0  0  0  0  0  0  0  0  0  0 
    4.7351   -2.8293   -0.4324 H   0  0  0  0  0  0  0  0  0  0  0  0 
    7.1279   -3.4860   -0.7897 H   0  0  0  0  0  0  0  0  0  0  0  0 
    7.1383   -2.6479   -2.3363 H   0  0  0  0  0  0  0  0  0  0  0  0 
    5.3234   -5.0363   -1.6534 H   0  0  0  0  0  0  0  0  0  0  0  0 
    6.8475   -5.1267   -2.5563 H   0  0  0  0  0  0  0  0  0  0  0  0 
    5.5038   -3.6569   -5.3916 H   0  0  0  0  0  0  0  0  0  0  0  0 
    2.3660   -4.7453   -3.0912 H   0  0  0  0  0  0  0  0  0  0  0  0 
  1 12  1  0  0  0  0 
  1 13  1  0  0  0  0 
  2  1  1  0  0  0  0 
  2 15  1  0  0  0  0 
  3  2  1  0  0  0  0 
  3 18  1  0  0  0  0 
  4  3  1  0  0  0  0 
  4 19  1  0  0  0  0 
  5  4  1  0  0  0  0 
  5 22  1  0  0  0  0 
  6  5  1  0  0  0  0 
  6 23  1  0  0  0  0 
  7 25  1  0  0  0  0 
  7  6  1  0  0  0  0 
  8  7  1  0  0  0  0 
  9  8  2  0  0  0  0 
  9 11  1  0  0  0  0 
 10  8  1  0  0  0  0 
 14  1  1  0  0  0  0 
 16  2  1  0  0  0  0 
 17  3  1  0  0  0  0 
 20  4  1  0  0  0  0 
 21  5  1  0  0  0  0 
 24  6  1  0  0  0  0 
 26  7  1  0  0  0  0 
 27 10  1  0  0  0  0 
 28 11  1  0  0  0  0 
M  END 
>  <HBA> 
3 
 
>  <HBD> 
2 
 
>  <TPSA> 
49.33 
 
>  <cid> 
23846 
 
>  <dipole> 
0.47 
 
>  <excitation_energy_1> 
5.66 
 
>  <excitation_energy_2> 
5.838 
 
>  <excitation_energy_3> 
6.147 
 
>  <excitation_energy_4> 
6.625 
 
>  <homo_energy> 
-6.112 
 
>  <homo_lumo_gap> 
6.863 
 
>  <logP> 
2.243 
 
>  <lumo_energy> 
0.751 
 
>  <melting_point> 
74.59 
 
>  <molecular_refractivity> 
44.3 
 
>  <oscillator_strength_1> 
0.001 
 
>  <oscillator_strength_2> 
0.003 
 
>  <oscillator_strength_3> 
0.0855 
 
>  <oscillator_strength_4> 
0.0446 
 
>  <open_babel_can_smiles> 
CCCCCCC/C(=N\O)/O 
 
>  <mulliken_charges> 
28 
1   -0.441116 
2   -0.246444 
3   -0.245524 
4   -0.253815 
5   -0.253732 
6   -0.266488 
7   -0.325481 
8   0.538785 
9   -0.299139 
10   -0.600369 
11   -0.520029 
12   0.140731 
13   0.140811 
14   0.140842 
15   0.129223 
16   0.129501 
17   0.127234 
18   0.126756 
19   0.12538 
20   0.127054 
21   0.14256 
22   0.134991 
23   0.135287 
24   0.149471 
25   0.179613 
26   0.159748 
27   0.408769 
28   0.41538 
 
>  <lowdin_charges> 
28 
1   -0.446727 
2   -0.274459 
3   -0.276277 
4   -0.27639 
5   -0.27898 
6   -0.270201 
7   -0.29334 
8   0.110942 
9   -0.143935 
10   -0.36842 
11   -0.393308 
12   0.149053 
13   0.147151 
14   0.146819 
15   0.139019 
16   0.139824 
17   0.138399 
18   0.138887 
19   0.137185 
20   0.138939 
21   0.145838 
22   0.143706 
23   0.144849 
24   0.149578 
25   0.171892 
26   0.16642 
27   0.359471 
28   0.354066 
 
$$$$ 
 
