PCCDB-ID:  29352 
public computational chemistry database (PCCDB) project, http://pccdb.org 
 
 23 23  0  0  0  0  0  0  0  0999 V2000 
    3.9719    1.0866   -0.7754 C   0  0  0  0  0  0  0  0  0  0  0  0 
    5.4949    1.1351   -0.6210 C   0  0  0  0  0  0  0  0  0  0  0  0 
    5.8526    7.1443   -0.7946 C   0  0  0  0  0  0  0  0  0  0  0  0 
    7.3042    6.2518   -2.5020 C   0  0  0  0  0  0  0  0  0  0  0  0 
    5.5016    5.8522   -0.4171 C   0  0  0  0  0  0  0  0  0  0  0  0 
    6.9547    4.9535   -2.1245 C   0  0  0  0  0  0  0  0  0  0  0  0 
    6.1336    2.3515   -1.2801 C   0  0  0  0  0  0  0  0  0  0  0  0 
    6.7578    7.3520   -1.8422 C   0  0  0  0  0  0  0  0  0  0  0  0 
    6.0485    4.7450   -1.0777 C   0  0  0  0  0  0  0  0  0  0  0  0 
    7.1411    8.6034   -2.2583 O   0  0  0  0  0  0  0  0  0  0  0  0 
    5.6402    3.5173   -0.6269 O   0  0  0  0  0  0  0  0  0  0  0  0 
    3.5555    0.1992   -0.2863 H   0  0  0  0  0  0  0  0  0  0  0  0 
    3.6832    1.0524   -1.8334 H   0  0  0  0  0  0  0  0  0  0  0  0 
    3.5081    1.9719   -0.3304 H   0  0  0  0  0  0  0  0  0  0  0  0 
    5.9494    0.2390   -1.0643 H   0  0  0  0  0  0  0  0  0  0  0  0 
    5.7661    1.1335    0.4422 H   0  0  0  0  0  0  0  0  0  0  0  0 
    5.4193    7.9950   -0.2711 H   0  0  0  0  0  0  0  0  0  0  0  0 
    8.0052    6.4205   -3.3135 H   0  0  0  0  0  0  0  0  0  0  0  0 
    4.7999    5.6806    0.3931 H   0  0  0  0  0  0  0  0  0  0  0  0 
    7.3977    4.1169   -2.6525 H   0  0  0  0  0  0  0  0  0  0  0  0 
    5.8823    2.3876   -2.3514 H   0  0  0  0  0  0  0  0  0  0  0  0 
    7.2295    2.3084   -1.1912 H   0  0  0  0  0  0  0  0  0  0  0  0 
    6.6805    9.2648   -1.7199 H   0  0  0  0  0  0  0  0  0  0  0  0 
  1  2  1  0  0  0  0 
  1 14  1  0  0  0  0 
  1 12  1  0  0  0  0 
  2 16  1  0  0  0  0 
  3  5  1  0  0  0  0 
  3 17  1  0  0  0  0 
  4  6  2  0  0  0  0 
  4  8  1  0  0  0  0 
  5 19  1  0  0  0  0 
  6  9  1  0  0  0  0 
  7 22  1  0  0  0  0 
  7 11  1  0  0  0  0 
  7  2  1  0  0  0  0 
  8  3  2  0  0  0  0 
  9 11  1  0  0  0  0 
  9  5  2  0  0  0  0 
 10  8  1  0  0  0  0 
 10 23  1  0  0  0  0 
 13  1  1  0  0  0  0 
 15  2  1  0  0  0  0 
 18  4  1  0  0  0  0 
 20  6  1  0  0  0  0 
 21  7  1  0  0  0  0 
M  END 
>  <HBA> 
2 
 
>  <HBD> 
1 
 
>  <TPSA> 
29.46 
 
>  <cid> 
29352 
 
>  <dipole> 
0.69 
 
>  <excitation_energy_1> 
4.604 
 
>  <excitation_energy_2> 
4.759 
 
>  <excitation_energy_3> 
5.132 
 
>  <excitation_energy_4> 
5.533 
 
>  <homo_energy> 
-5.317 
 
>  <homo_lumo_gap> 
5.342 
 
>  <logP> 
2.181 
 
>  <lumo_energy> 
0.024 
 
>  <melting_point> 
48.07 
 
>  <molecular_refractivity> 
44.57 
 
>  <oscillator_strength_1> 
0.0591 
 
>  <oscillator_strength_2> 
0.0 
 
>  <oscillator_strength_3> 
0.0046 
 
>  <oscillator_strength_4> 
0.0012 
 
>  <open_babel_can_smiles> 
CCCOc1ccc(cc1)O 
 
>  <mulliken_charges> 
23 
1   -0.442641 
2   -0.27089 
3   -0.195904 
4   -0.16964 
5   -0.182256 
6   -0.198417 
7   -0.026473 
8   0.346977 
9   0.37797 
10   -0.65064 
11   -0.52756 
12   0.143759 
13   0.140268 
14   0.166325 
15   0.136366 
16   0.150258 
17   0.118492 
18   0.138791 
19   0.137048 
20   0.134324 
21   0.133548 
22   0.135742 
23   0.404553 
 
>  <lowdin_charges> 
23 
1   -0.446132 
2   -0.277404 
3   -0.204826 
4   -0.177738 
5   -0.17207 
6   -0.202131 
7   -0.121902 
8   0.086781 
9   0.086207 
10   -0.390831 
11   -0.210255 
12   0.151415 
13   0.145133 
14   0.159192 
15   0.148309 
16   0.149396 
17   0.154354 
18   0.167116 
19   0.166558 
20   0.164379 
21   0.132434 
22   0.134623 
23   0.357393 
 
$$$$ 
 
