PCCDB-ID:  10137 
public computational chemistry database (PCCDB) project, http://pccdb.org 
 
 39 41  0  0  1  0  0  0  0  0999 V2000 
    1.8841    0.9499   -1.4059 C   0  0  0  0  0  0  0  0  0  0  0  0 
    4.1003    5.1625    2.4162 C   0  0  0  0  0  0  0  0  0  0  0  0 
    4.8522    5.3946    0.0416 C   0  0  0  0  0  0  0  0  0  0  0  0 
    2.1153   -0.0146    1.5470 C   0  0  0  0  0  0  0  0  0  0  0  0 
    5.4066    1.8707    1.7708 C   0  0  0  0  0  0  0  0  0  0  0  0 
    0.9433    3.6413    0.5400 C   0  0  0  0  0  0  0  0  0  0  0  0 
    1.3183    3.0636    1.9326 C   0  0  0  0  0  0  0  0  0  0  0  0 
    5.6692    3.3754    1.3645 C   0  0  0  0  0  0  0  0  0  0  0  0 
    4.4446    0.9038    0.9657 C   0  0  0  0  0  0  0  0  0  0  0  0 
    2.2606    1.7019   -0.3725 C   0  0  0  0  0  0  0  0  0  0  0  0 
    2.1712    3.2557   -0.2988 C   0  0  2  0  0  0  0  0  0  0  0  0 
    2.7567    2.5170    1.7592 C   0  0  2  0  0  0  0  0  0  0  0  0 
    3.4091    3.3823    0.6393 C   0  0  2  0  0  0  0  0  0  0  0  0 
    4.4610    4.3886    1.1378 C   0  0  0  0  0  0  0  0  0  0  0  0 
    2.8669    1.1964    0.9846 C   0  0  1  0  0  0  0  0  0  0  0  0 
    1.4658    1.3882   -2.3095 H   0  0  0  0  0  0  0  0  0  0  0  0 
    1.9773   -0.1340   -1.3962 H   0  0  0  0  0  0  0  0  0  0  0  0 
    3.2212    5.7994    2.2588 H   0  0  0  0  0  0  0  0  0  0  0  0 
    3.8863    4.5004    3.2614 H   0  0  0  0  0  0  0  0  0  0  0  0 
    4.9302    5.8156    2.7143 H   0  0  0  0  0  0  0  0  0  0  0  0 
    5.7560    5.9525    0.3182 H   0  0  0  0  0  0  0  0  0  0  0  0 
    4.0487    6.1220   -0.1259 H   0  0  0  0  0  0  0  0  0  0  0  0 
    5.0505    4.8891   -0.9116 H   0  0  0  0  0  0  0  0  0  0  0  0 
    2.2744   -0.9027    0.9232 H   0  0  0  0  0  0  0  0  0  0  0  0 
    1.0355    0.1599    1.5957 H   0  0  0  0  0  0  0  0  0  0  0  0 
    2.4692   -0.2570    2.5573 H   0  0  0  0  0  0  0  0  0  0  0  0 
    5.1419    1.8203    2.8333 H   0  0  0  0  0  0  0  0  0  0  0  0 
    6.3946    1.3934    1.7114 H   0  0  0  0  0  0  0  0  0  0  0  0 
    0.8261    4.7316    0.5740 H   0  0  0  0  0  0  0  0  0  0  0  0 
    0.0158    3.2222    0.1363 H   0  0  0  0  0  0  0  0  0  0  0  0 
    0.6267    2.2810    2.2622 H   0  0  0  0  0  0  0  0  0  0  0  0 
    1.3016    3.8408    2.7044 H   0  0  0  0  0  0  0  0  0  0  0  0 
    6.2198    3.3447    0.4138 H   0  0  0  0  0  0  0  0  0  0  0  0 
    6.3701    3.7869    2.1044 H   0  0  0  0  0  0  0  0  0  0  0  0 
    4.6062   -0.0901    1.4044 H   0  0  0  0  0  0  0  0  0  0  0  0 
    4.7943    0.8236   -0.0714 H   0  0  0  0  0  0  0  0  0  0  0  0 
    2.2311    3.7300   -1.2825 H   0  0  0  0  0  0  0  0  0  0  0  0 
    3.2754    2.4871    2.7148 H   0  0  0  0  0  0  0  0  0  0  0  0 
    4.0829    2.7672    0.0502 H   0  0  0  0  0  0  0  0  0  0  0  0 
  1 17  1  0  0  0  0 
  1 10  2  0  0  0  0 
  2 20  1  0  0  0  0 
  2 19  1  0  0  0  0 
  3 21  1  0  0  0  0 
  3 14  1  0  0  0  0 
  4 25  1  0  0  0  0 
  4 26  1  0  0  0  0 
  5 27  1  0  0  0  0 
  6 29  1  0  0  0  0 
  6  7  1  0  0  0  0 
  7 31  1  0  0  0  0 
  7 32  1  0  0  0  0 
  8  5  1  0  0  0  0 
  8 34  1  0  0  0  0 
  9 15  1  0  0  0  0 
  9 35  1  0  0  0  0 
  9  5  1  0  0  0  0 
 10 11  1  0  0  0  0 
 10 15  1  0  0  0  0 
 11 37  1  6  0  0  0 
 11  6  1  0  0  0  0 
 11 13  1  0  0  0  0 
 12  7  1  0  0  0  0 
 12 38  1  1  0  0  0 
 13 39  1  6  0  0  0 
 13 14  1  0  0  0  0 
 13 12  1  0  0  0  0 
 14  8  1  0  0  0  0 
 14  2  1  0  0  0  0 
 15  4  1  1  0  0  0 
 15 12  1  0  0  0  0 
 16  1  1  0  0  0  0 
 18  2  1  0  0  0  0 
 22  3  1  0  0  0  0 
 23  3  1  0  0  0  0 
 24  4  1  0  0  0  0 
 28  5  1  0  0  0  0 
 30  6  1  0  0  0  0 
 33  8  1  0  0  0  0 
 36  9  1  0  0  0  0 
M  END 
>  <HBA> 
0 
 
>  <HBD> 
0 
 
>  <TPSA> 
0.0 
 
>  <cid> 
10137 
 
>  <dipole> 
0.67 
 
>  <excitation_energy_1> 
5.887 
 
>  <excitation_energy_2> 
6.247 
 
>  <excitation_energy_3> 
6.307 
 
>  <excitation_energy_4> 
6.376 
 
>  <homo_energy> 
-6.392 
 
>  <homo_lumo_gap> 
7.135 
 
>  <logP> 
4.415 
 
>  <lumo_energy> 
0.743 
 
>  <melting_point> 
55.39 
 
>  <molecular_refractivity> 
66.88 
 
>  <oscillator_strength_1> 
0.0336 
 
>  <oscillator_strength_2> 
0.0655 
 
>  <oscillator_strength_3> 
0.0108 
 
>  <oscillator_strength_4> 
0.0025 
 
>  <open_babel_can_smiles> 
C=C1[C@H]2CC[C@H]3[C@]1(C)CCCC([C@H]23)(C)C 
 
>  <mulliken_charges> 
39 
1   -0.446598 
2   -0.457992 
3   -0.453054 
4   -0.479424 
5   -0.274051 
6   -0.255417 
7   -0.284502 
8   -0.291293 
9   -0.303371 
10   0.19097 
11   -0.161307 
12   -0.134885 
13   -0.123075 
14   0.107188 
15   0.096576 
16   0.131465 
17   0.132075 
18   0.140967 
19   0.14324 
20   0.137072 
21   0.137651 
22   0.140854 
23   0.138076 
24   0.143238 
25   0.146726 
26   0.136282 
27   0.139264 
28   0.132826 
29   0.130849 
30   0.136831 
31   0.138182 
32   0.134917 
33   0.134334 
34   0.126926 
35   0.131837 
36   0.145042 
37   0.117834 
38   0.11848 
39   0.155268 
 
>  <lowdin_charges> 
39 
1   -0.369568 
2   -0.447989 
3   -0.44255 
4   -0.443095 
5   -0.284846 
6   -0.280092 
7   -0.289581 
8   -0.287193 
9   -0.288532 
10   0.000674 
11   -0.133171 
12   -0.141339 
13   -0.147459 
14   0.011122 
15   0.005247 
16   0.1559 
17   0.15275 
18   0.148265 
19   0.148525 
20   0.147521 
21   0.146465 
22   0.148554 
23   0.145862 
24   0.149743 
25   0.148477 
26   0.145214 
27   0.138165 
28   0.148774 
29   0.139364 
30   0.14522 
31   0.147019 
32   0.146215 
33   0.142845 
34   0.143276 
35   0.144791 
36   0.145563 
37   0.144688 
38   0.14241 
39   0.172767 
 
$$$$ 
 
