PCCDB-ID:  41958 
public computational chemistry database (PCCDB) project, http://pccdb.org 
 
 21 20  0  0  0  0  0  0  0  0999 V2000 
   -0.5323    0.8906   -0.0968 C   0  0  0  0  0  0  0  0  0  0  0  0 
    0.8899    0.3556   -0.2931 C   0  0  0  0  0  0  0  0  0  0  0  0 
    1.9561    1.2539    0.3479 C   0  0  0  0  0  0  0  0  0  0  0  0 
    3.3668    0.7141    0.1598 C   0  0  0  0  0  0  0  0  0  0  0  0 
    5.6434    1.2155    0.6842 C   0  0  0  0  0  0  0  0  0  0  0  0 
    6.5212    2.2698    1.3630 C   0  0  0  0  0  0  0  0  0  0  0  0 
    7.7207    2.1637    1.4224 O   0  0  0  0  0  0  0  0  0  0  0  0 
    5.8486    3.3126    1.8805 O   0  0  0  0  0  0  0  0  0  0  0  0 
    4.2881    1.6090    0.7800 O   0  0  0  0  0  0  0  0  0  0  0  0 
   -1.2709    0.2367   -0.5731 H   0  0  0  0  0  0  0  0  0  0  0  0 
   -0.6428    1.8915   -0.5312 H   0  0  0  0  0  0  0  0  0  0  0  0 
   -0.7852    0.9611    0.9679 H   0  0  0  0  0  0  0  0  0  0  0  0 
    1.0969    0.2523   -1.3675 H   0  0  0  0  0  0  0  0  0  0  0  0 
    0.9612   -0.6557    0.1312 H   0  0  0  0  0  0  0  0  0  0  0  0 
    1.7606    1.3591    1.4232 H   0  0  0  0  0  0  0  0  0  0  0  0 
    1.9055    2.2624   -0.0833 H   0  0  0  0  0  0  0  0  0  0  0  0 
    3.6108    0.6199   -0.9107 H   0  0  0  0  0  0  0  0  0  0  0  0 
    3.4668   -0.2860    0.6114 H   0  0  0  0  0  0  0  0  0  0  0  0 
    5.8215    0.2481    1.1771 H   0  0  0  0  0  0  0  0  0  0  0  0 
    5.9660    1.1209   -0.3636 H   0  0  0  0  0  0  0  0  0  0  0  0 
    4.8979    3.1612    1.7009 H   0  0  0  0  0  0  0  0  0  0  0  0 
  1 12  1  0  0  0  0 
  2  1  1  0  0  0  0 
  2 14  1  0  0  0  0 
  2  3  1  0  0  0  0 
  3 15  1  0  0  0  0 
  4  3  1  0  0  0  0 
  4 18  1  0  0  0  0 
  4  9  1  0  0  0  0 
  5  9  1  0  0  0  0 
  5 19  1  0  0  0  0 
  5  6  1  0  0  0  0 
  6  7  2  0  0  0  0 
  6  8  1  0  0  0  0 
 10  1  1  0  0  0  0 
 11  1  1  0  0  0  0 
 13  2  1  0  0  0  0 
 16  3  1  0  0  0  0 
 17  4  1  0  0  0  0 
 20  5  1  0  0  0  0 
 21  8  1  0  0  0  0 
M  END 
>  <HBA> 
3 
 
>  <HBD> 
1 
 
>  <TPSA> 
46.53 
 
>  <cid> 
41958 
 
>  <dipole> 
5.43 
 
>  <excitation_energy_1> 
5.799 
 
>  <excitation_energy_2> 
6.872 
 
>  <excitation_energy_3> 
7.021 
 
>  <excitation_energy_4> 
7.075 
 
>  <homo_energy> 
-7.285 
 
>  <homo_lumo_gap> 
7.693 
 
>  <logP> 
0.888 
 
>  <lumo_energy> 
0.408 
 
>  <melting_point> 
41.65 
 
>  <molecular_refractivity> 
33.81 
 
>  <oscillator_strength_1> 
0.0004 
 
>  <oscillator_strength_2> 
0.0207 
 
>  <oscillator_strength_3> 
0.0117 
 
>  <oscillator_strength_4> 
0.0059 
 
>  <open_babel_can_smiles> 
CCCCOCC(=O)O 
 
>  <mulliken_charges> 
21 
1   -0.441812 
2   -0.259347 
3   -0.273488 
4   -0.006503 
5   -0.108986 
6   0.574288 
7   -0.449255 
8   -0.569342 
9   -0.517821 
10   0.148765 
11   0.147045 
12   0.147142 
13   0.137726 
14   0.137606 
15   0.147776 
16   0.147435 
17   0.132464 
18   0.13245 
19   0.170589 
20   0.170063 
21   0.433205 
 
>  <lowdin_charges> 
21 
1   -0.441717 
2   -0.269384 
3   -0.279106 
4   -0.1226 
5   -0.167586 
6   0.178504 
7   -0.244536 
8   -0.343147 
9   -0.286189 
10   0.154449 
11   0.148814 
12   0.148048 
13   0.140482 
14   0.141306 
15   0.147581 
16   0.148345 
17   0.131753 
18   0.132966 
19   0.159918 
20   0.158909 
21   0.363188 
 
$$$$ 
 
