PCCDB-ID:  19602 
public computational chemistry database (PCCDB) project, http://pccdb.org 
 
 24 24  0  0  0  0  0  0  0  0999 V2000 
    0.8494   -0.0746    0.0351 C   0  0  0  0  0  0  0  0  0  0  0  0 
    2.3765    0.0059   -0.0571 C   0  0  0  0  0  0  0  0  0  0  0  0 
    2.9841   -1.0609   -0.9772 C   0  0  0  0  0  0  0  0  0  0  0  0 
    4.5128   -0.9889   -1.0653 C   0  0  0  0  0  0  0  0  0  0  0  0 
    8.8407   -2.2080   -2.0891 C   0  0  0  0  0  0  0  0  0  0  0  0 
    5.1130   -2.0653   -1.9927 C   0  0  0  0  0  0  0  0  0  0  0  0 
    7.6087   -2.8460   -1.7204 C   0  0  0  0  0  0  0  0  0  0  0  0 
    8.4933   -1.0259   -2.6631 C   0  0  0  0  0  0  0  0  0  0  0  0 
    6.6005   -2.0079   -2.0986 C   0  0  0  0  0  0  0  0  0  0  0  0 
    7.1346   -0.8849   -2.6786 O   0  0  0  0  0  0  0  0  0  0  0  0 
    0.4471    0.7001    0.6978 H   0  0  0  0  0  0  0  0  0  0  0  0 
    0.5262   -1.0474    0.4260 H   0  0  0  0  0  0  0  0  0  0  0  0 
    0.3847    0.0561   -0.9500 H   0  0  0  0  0  0  0  0  0  0  0  0 
    2.8101   -0.0943    0.9480 H   0  0  0  0  0  0  0  0  0  0  0  0 
    2.6702    1.0022   -0.4165 H   0  0  0  0  0  0  0  0  0  0  0  0 
    2.5547   -0.9571   -1.9850 H   0  0  0  0  0  0  0  0  0  0  0  0 
    2.6850   -2.0585   -0.6215 H   0  0  0  0  0  0  0  0  0  0  0  0 
    4.9492   -1.0981   -0.0631 H   0  0  0  0  0  0  0  0  0  0  0  0 
    4.8175    0.0013   -1.4285 H   0  0  0  0  0  0  0  0  0  0  0  0 
    9.8440   -2.5833   -1.9421 H   0  0  0  0  0  0  0  0  0  0  0  0 
    4.6684   -1.9637   -2.9933 H   0  0  0  0  0  0  0  0  0  0  0  0 
    4.8393   -3.0633   -1.6289 H   0  0  0  0  0  0  0  0  0  0  0  0 
    7.4894   -3.8076   -1.2398 H   0  0  0  0  0  0  0  0  0  0  0  0 
    9.0530   -0.2095   -3.0936 H   0  0  0  0  0  0  0  0  0  0  0  0 
  1 12  1  0  0  0  0 
  1 11  1  0  0  0  0 
  2  1  1  0  0  0  0 
  2 14  1  0  0  0  0 
  3 17  1  0  0  0  0 
  3  2  1  0  0  0  0 
  4  3  1  0  0  0  0 
  4 18  1  0  0  0  0 
  5 20  1  0  0  0  0 
  5  7  1  0  0  0  0 
  6 22  1  0  0  0  0 
  6  4  1  0  0  0  0 
  7 23  1  0  0  0  0 
  8  5  2  0  0  0  0 
  9  6  1  0  0  0  0 
  9  7  2  0  0  0  0 
 10  8  1  0  0  0  0 
 10  9  1  0  0  0  0 
 13  1  1  0  0  0  0 
 15  2  1  0  0  0  0 
 16  3  1  0  0  0  0 
 19  4  1  0  0  0  0 
 21  6  1  0  0  0  0 
 24  8  1  0  0  0  0 
M  END 
>  <HBA> 
1 
 
>  <HBD> 
0 
 
>  <TPSA> 
13.14 
 
>  <cid> 
19602 
 
>  <dipole> 
0.48 
 
>  <excitation_energy_1> 
5.453 
 
>  <excitation_energy_2> 
5.795 
 
>  <excitation_energy_3> 
5.87 
 
>  <excitation_energy_4> 
6.089 
 
>  <homo_energy> 
-5.753 
 
>  <homo_lumo_gap> 
6.392 
 
>  <logP> 
3.012 
 
>  <lumo_energy> 
0.639 
 
>  <melting_point> 
3.72 
 
>  <molecular_refractivity> 
42.9 
 
>  <oscillator_strength_1> 
0.0109 
 
>  <oscillator_strength_2> 
0.1401 
 
>  <oscillator_strength_3> 
0.1062 
 
>  <oscillator_strength_4> 
0.0236 
 
>  <open_babel_can_smiles> 
CCCCCc1ccco1 
 
>  <mulliken_charges> 
24 
1   -0.441604 
2   -0.2473 
3   -0.246618 
4   -0.25647 
5   -0.181962 
6   -0.346 
7   -0.212096 
8   0.079342 
9   0.34977 
10   -0.441328 
11   0.142419 
12   0.141125 
13   0.141611 
14   0.131495 
15   0.132425 
16   0.128371 
17   0.126394 
18   0.136117 
19   0.147637 
20   0.136387 
21   0.152484 
22   0.147725 
23   0.131468 
24   0.148609 
 
>  <lowdin_charges> 
24 
1   -0.445079 
2   -0.270268 
3   -0.273891 
4   -0.272694 
5   -0.205768 
6   -0.272893 
7   -0.224361 
8   -0.087355 
9   0.067284 
10   -0.1096 
11   0.150702 
12   0.145948 
13   0.146036 
14   0.138842 
15   0.139456 
16   0.137389 
17   0.136332 
18   0.142618 
19   0.147209 
20   0.166175 
21   0.154776 
22   0.155593 
23   0.164337 
24   0.169213 
 
$$$$ 
 
