PCCDB-ID:  67438 
public computational chemistry database (PCCDB) project, http://pccdb.org 
 
 30 31  0  0  0  0  0  0  0  0999 V2000 
    0.7718   -3.7035   -2.1710 C   0  0  0  0  0  0  0  0  0  0  0  0 
    1.6474   -3.0256   -1.1060 C   0  0  0  0  0  0  0  0  0  0  0  0 
   -0.2950   -2.7382   -2.7062 C   0  0  0  0  0  0  0  0  0  0  0  0 
   -1.2165    1.3169    0.9755 C   0  0  0  0  0  0  0  0  0  0  0  0 
   -0.0953    1.7702    0.0317 C   0  0  0  0  0  0  0  0  0  0  0  0 
    0.7997   -2.4388    0.0322 C   0  0  0  0  0  0  0  0  0  0  0  0 
   -1.1371   -2.1471   -1.5640 C   0  0  0  0  0  0  0  0  0  0  0  0 
   -1.9100    0.0265    0.5314 C   0  0  0  0  0  0  0  0  0  0  0  0 
    0.9076    0.6657   -0.3088 C   0  0  0  0  0  0  0  0  0  0  0  0 
   -0.2712   -1.4650   -0.4898 C   0  0  0  0  0  0  0  0  0  0  0  0 
   -1.0305   -1.0953    0.6534 O   0  0  0  0  0  0  0  0  0  0  0  0 
    0.3048   -0.3330   -1.1353 O   0  0  0  0  0  0  0  0  0  0  0  0 
    0.2787   -4.5827   -1.7295 H   0  0  0  0  0  0  0  0  0  0  0  0 
    1.3952   -4.0757   -2.9939 H   0  0  0  0  0  0  0  0  0  0  0  0 
    2.2258   -2.2183   -1.5745 H   0  0  0  0  0  0  0  0  0  0  0  0 
    2.3731   -3.7387   -0.6955 H   0  0  0  0  0  0  0  0  0  0  0  0 
   -0.9518   -3.2515   -3.4203 H   0  0  0  0  0  0  0  0  0  0  0  0 
    0.1907   -1.9199   -3.2515 H   0  0  0  0  0  0  0  0  0  0  0  0 
   -1.9693    2.1123    1.0657 H   0  0  0  0  0  0  0  0  0  0  0  0 
   -0.8124    1.1468    1.9824 H   0  0  0  0  0  0  0  0  0  0  0  0 
    0.4462    2.6151    0.4797 H   0  0  0  0  0  0  0  0  0  0  0  0 
   -0.5235    2.1325   -0.9125 H   0  0  0  0  0  0  0  0  0  0  0  0 
    1.4298   -1.9258    0.7677 H   0  0  0  0  0  0  0  0  0  0  0  0 
    0.2821   -3.2400    0.5743 H   0  0  0  0  0  0  0  0  0  0  0  0 
   -1.7054   -2.9421   -1.0644 H   0  0  0  0  0  0  0  0  0  0  0  0 
   -1.8596   -1.4256   -1.9603 H   0  0  0  0  0  0  0  0  0  0  0  0 
   -2.2943    0.1232   -0.4916 H   0  0  0  0  0  0  0  0  0  0  0  0 
   -2.7597   -0.1895    1.1887 H   0  0  0  0  0  0  0  0  0  0  0  0 
    1.3293    0.2275    0.6044 H   0  0  0  0  0  0  0  0  0  0  0  0 
    1.7358    1.0773   -0.8960 H   0  0  0  0  0  0  0  0  0  0  0  0 
  1 13  1  0  0  0  0 
  1  2  1  0  0  0  0 
  2 16  1  0  0  0  0 
  2  6  1  0  0  0  0 
  3  1  1  0  0  0  0 
  3  7  1  0  0  0  0 
  4 19  1  0  0  0  0 
  4 20  1  0  0  0  0 
  5 21  1  0  0  0  0 
  5  4  1  0  0  0  0 
  6 24  1  0  0  0  0 
  6 23  1  0  0  0  0 
  7 25  1  0  0  0  0 
  7 10  1  0  0  0  0 
  8 11  1  0  0  0  0 
  8  4  1  0  0  0  0 
  8 28  1  0  0  0  0 
  9  5  1  0  0  0  0 
  9 29  1  0  0  0  0 
 10  6  1  0  0  0  0 
 10 11  1  0  0  0  0 
 12 10  1  0  0  0  0 
 12  9  1  0  0  0  0 
 14  1  1  0  0  0  0 
 15  2  1  0  0  0  0 
 17  3  1  0  0  0  0 
 18  3  1  0  0  0  0 
 22  5  1  0  0  0  0 
 26  7  1  0  0  0  0 
 27  8  1  0  0  0  0 
 30  9  1  0  0  0  0 
M  END 
>  <HBA> 
2 
 
>  <HBD> 
0 
 
>  <TPSA> 
18.46 
 
>  <cid> 
67438 
 
>  <dipole> 
0.77 
 
>  <excitation_energy_1> 
6.148 
 
>  <excitation_energy_2> 
6.446 
 
>  <excitation_energy_3> 
6.462 
 
>  <excitation_energy_4> 
6.639 
 
>  <homo_energy> 
-6.449 
 
>  <homo_lumo_gap> 
8.811 
 
>  <logP> 
2.474 
 
>  <lumo_energy> 
2.362 
 
>  <melting_point> 
9.06 
 
>  <molecular_refractivity> 
48.16 
 
>  <oscillator_strength_1> 
0.0085 
 
>  <oscillator_strength_2> 
0.0093 
 
>  <oscillator_strength_3> 
0.0029 
 
>  <oscillator_strength_4> 
0.0094 
 
>  <open_babel_can_smiles> 
C1CCC2(CC1)OCCCCO2 
 
>  <mulliken_charges> 
30 
1   -0.2595 
2   -0.2615 
3   -0.261735 
4   -0.265825 
5   -0.265841 
6   -0.28663 
7   -0.284217 
8   -0.037159 
9   -0.035215 
10   0.535441 
11   -0.518571 
12   -0.508565 
13   0.125636 
14   0.129305 
15   0.141153 
16   0.128978 
17   0.127392 
18   0.149365 
19   0.129518 
20   0.14217 
21   0.129577 
22   0.141962 
23   0.136564 
24   0.142009 
25   0.136529 
26   0.136773 
27   0.136356 
28   0.139874 
29   0.137208 
30   0.138948 
 
>  <lowdin_charges> 
30 
1   -0.279603 
2   -0.281554 
3   -0.280796 
4   -0.290381 
5   -0.290693 
6   -0.294407 
7   -0.293593 
8   -0.134055 
9   -0.137079 
10   0.204983 
11   -0.271629 
12   -0.275204 
13   0.136593 
14   0.144435 
15   0.145781 
16   0.145001 
17   0.144054 
18   0.149849 
19   0.147117 
20   0.145598 
21   0.147379 
22   0.146438 
23   0.150053 
24   0.152581 
25   0.14865 
26   0.150373 
27   0.137171 
28   0.147088 
29   0.13879 
30   0.147061 
 
$$$$ 
 
