PCCDB-ID:  35500 
public computational chemistry database (PCCDB) project, http://pccdb.org 
 
 17 17  0  0  0  0  0  0  0  0999 V2000 
    1.0090    0.0329    0.1299 C   0  0  0  0  0  0  0  0  0  0  0  0 
    5.3064   -2.2772    0.0967 C   0  0  0  0  0  0  0  0  0  0  0  0 
    2.5062    0.0659    0.0213 C   0  0  0  0  0  0  0  0  0  0  0  0 
    4.5045   -1.0107    0.0065 C   0  0  0  0  0  0  0  0  0  0  0  0 
    4.4104    1.2262   -0.2265 C   0  0  0  0  0  0  0  0  0  0  0  0 
    7.3813    2.6285   -0.5785 N   0  0  0  0  0  0  0  0  0  0  0  0 
    3.1695   -1.0995    0.1026 N   0  0  0  0  0  0  0  0  0  0  0  0 
    3.0801    1.2654   -0.1445 N   0  0  0  0  0  0  0  0  0  0  0  0 
    5.1818    0.1340   -0.1603 N   0  0  0  0  0  0  0  0  0  0  0  0 
    5.0174    2.4789   -0.4003 N   0  0  0  0  0  0  0  0  0  0  0  0 
    6.2632    2.4690   -0.4848 N   0  0  0  0  0  0  0  0  0  0  0  0 
    0.6509   -0.9973    0.1519 H   0  0  0  0  0  0  0  0  0  0  0  0 
    0.5585    0.5709   -0.7104 H   0  0  0  0  0  0  0  0  0  0  0  0 
    0.6917    0.5467    1.0449 H   0  0  0  0  0  0  0  0  0  0  0  0 
    4.6443   -3.1432    0.1385 H   0  0  0  0  0  0  0  0  0  0  0  0 
    5.9354   -2.2574    0.9943 H   0  0  0  0  0  0  0  0  0  0  0  0 
    5.9791   -2.3605   -0.7632 H   0  0  0  0  0  0  0  0  0  0  0  0 
  1 12  1  0  0  0  0 
  1 14  1  0  0  0  0 
  2 15  1  0  0  0  0 
  2 16  1  0  0  0  0 
  3  7  2  0  0  0  0 
  3  1  1  0  0  0  0 
  4  2  1  0  0  0  0 
  4  7  2  0  0  0  0 
  5  9  2  0  0  0  0 
  5  8  2  0  0  0  0 
  6 11  2  0  0  0  0 
  8  3  1  0  0  0  0 
  9  4  1  0  0  0  0 
 10  5  1  0  0  0  0 
 11 10  2  0  0  0  0 
 13  1  1  0  0  0  0 
 17  2  1  0  0  0  0 
M  RAD  1   6   2 
M  END 
>  <HBA> 
4 
 
>  <HBD> 
0 
 
>  <TPSA> 
88.42 
 
>  <cid> 
35500 
 
>  <dipole> 
1.57 
 
>  <excitation_energy_1> 
4.516 
 
>  <excitation_energy_2> 
4.552 
 
>  <excitation_energy_3> 
4.686 
 
>  <excitation_energy_4> 
4.734 
 
>  <homo_energy> 
-7.421 
 
>  <homo_lumo_gap> 
5.755 
 
>  <logP> 
0.883 
 
>  <lumo_energy> 
-1.665 
 
>  <melting_point> 
114.48 
 
>  <molecular_refractivity> 
35.3 
 
>  <oscillator_strength_1> 
0.0003 
 
>  <oscillator_strength_2> 
0.0 
 
>  <oscillator_strength_3> 
0.0015 
 
>  <oscillator_strength_4> 
0.005 
 
>  <open_babel_can_smiles> 
CC1=[N]=C(C)N=[C](=N1)N=[N]=[N] 
 
>  <mulliken_charges> 
17 
1   -0.505809 
2   -0.507531 
3   0.435208 
4   0.437257 
5   0.626522 
6   -0.213195 
7   -0.459341 
8   -0.457358 
9   -0.477815 
10   -0.438534 
11   0.472206 
12   0.178711 
13   0.182518 
14   0.183119 
15   0.180846 
16   0.182144 
17   0.181052 
 
>  <lowdin_charges> 
17 
1   -0.446737 
2   -0.447098 
3   0.127057 
4   0.127343 
5   0.132061 
6   -0.035636 
7   -0.195531 
8   -0.174879 
9   -0.209629 
10   -0.151534 
11   0.217127 
12   0.171304 
13   0.178411 
14   0.178823 
15   0.173847 
16   0.177998 
17   0.177074 
 
$$$$ 
 
