PCCDB-ID:  31661 
public computational chemistry database (PCCDB) project, http://pccdb.org 
 
 26 26  0  0  1  0  0  0  0  0999 V2000 
    2.0967   -0.7041    0.3064 C   0  0  0  0  0  0  0  0  0  0  0  0 
    3.2822   -0.5109    0.2042 C   0  0  0  0  0  0  0  0  0  0  0  0 
    7.9132    3.2477    0.5074 C   0  0  0  0  0  0  0  0  0  0  0  0 
    8.7127    1.0765   -0.1328 C   0  0  0  0  0  0  0  0  0  0  0  0 
    6.6144    2.7603    0.5645 C   0  0  0  0  0  0  0  0  0  0  0  0 
    7.4120    0.5666   -0.0798 C   0  0  0  0  0  0  0  0  0  0  0  0 
    4.7220   -0.3225    0.0594 C   0  0  0  0  0  0  0  0  0  0  0  0 
   10.4084    2.9494    0.1098 C   0  0  0  0  0  0  0  0  0  0  0  0 
    8.9929    2.4167    0.1554 C   0  0  0  0  0  0  0  0  0  0  0  0 
    6.3542    1.4126    0.2730 C   0  0  0  0  0  0  0  0  0  0  0  0 
   11.1638    2.8467    1.4281 C   0  0  1  0  0  0  0  0  0  0  0  0 
   12.3775    3.2154    1.6017 N   0  0  0  0  0  0  0  0  0  0  0  0 
   10.5370    2.3336    2.5159 O   0  0  0  0  0  0  0  0  0  0  0  0 
   12.8971    3.7316    0.3786 O   0  0  0  0  0  0  0  0  0  0  0  0 
    5.0459    1.0340    0.3686 O   0  0  0  0  0  0  0  0  0  0  0  0 
    1.0465   -0.8606    0.4087 H   0  0  0  0  0  0  0  0  0  0  0  0 
    8.0967    4.2958    0.7325 H   0  0  0  0  0  0  0  0  0  0  0  0 
    9.5249    0.4092   -0.4121 H   0  0  0  0  0  0  0  0  0  0  0  0 
    5.7818    3.4035    0.8308 H   0  0  0  0  0  0  0  0  0  0  0  0 
    7.2451   -0.4776   -0.3171 H   0  0  0  0  0  0  0  0  0  0  0  0 
    5.0319   -0.5601   -0.9688 H   0  0  0  0  0  0  0  0  0  0  0  0 
    5.2605   -1.0028    0.7357 H   0  0  0  0  0  0  0  0  0  0  0  0 
   10.4213    4.0024   -0.1963 H   0  0  0  0  0  0  0  0  0  0  0  0 
   10.9997    2.4256   -0.6502 H   0  0  0  0  0  0  0  0  0  0  0  0 
    9.6339    2.0901    2.2496 H   0  0  0  0  0  0  0  0  0  0  0  0 
   13.7994    3.9650    0.6427 H   0  0  0  0  0  0  0  0  0  0  0  0 
  1 16  1  0  0  0  0 
  2  1  3  0  0  0  0 
  3  5  1  0  0  0  0 
  3 17  1  0  0  0  0 
  4  6  2  0  0  0  0 
  4  9  1  0  0  0  0 
  5 19  1  0  0  0  0 
  6 10  1  0  0  0  0 
  7  2  1  0  0  0  0 
  7 15  1  0  0  0  0 
  7 22  1  0  0  0  0 
  8  9  1  0  0  0  0 
  8 11  1  0  0  0  0 
  9  3  2  0  0  0  0 
 10 15  1  0  0  0  0 
 10  5  2  0  0  0  0 
 11 12  1  1  0  0  0 
 11 13  1  0  0  0  0 
 14 26  1  0  0  0  0 
 14 12  1  0  0  0  0 
 18  4  1  0  0  0  0 
 20  6  1  0  0  0  0 
 21  7  1  0  0  0  0 
 23  8  1  0  0  0  0 
 24  8  1  0  0  0  0 
 25 13  1  0  0  0  0 
M  RAD  2  11   2  12   2 
M  END 
>  <HBA> 
4 
 
>  <HBD> 
2 
 
>  <TPSA> 
58.56 
 
>  <cid> 
31661 
 
>  <dipole> 
3.68 
 
>  <excitation_energy_1> 
4.762 
 
>  <excitation_energy_2> 
4.928 
 
>  <excitation_energy_3> 
5.003 
 
>  <excitation_energy_4> 
5.514 
 
>  <homo_energy> 
-5.875 
 
>  <homo_lumo_gap> 
5.32 
 
>  <logP> 
1.137 
 
>  <lumo_energy> 
-0.555 
 
>  <melting_point> 
131.09 
 
>  <molecular_refractivity> 
54.21 
 
>  <oscillator_strength_1> 
0.0016 
 
>  <oscillator_strength_2> 
0.0262 
 
>  <oscillator_strength_3> 
0.0013 
 
>  <oscillator_strength_4> 
0.0006 
 
>  <open_babel_can_smiles> 
C#CCOc1ccc(cc1)C[C]([N]O)O 
 
>  <mulliken_charges> 
26 
1   -0.515993 
2   0.386536 
3   -0.173443 
4   -0.179738 
5   -0.170021 
6   -0.187974 
7   -0.179576 
8   -0.409439 
9   0.067084 
10   0.384453 
11   0.503891 
12   -0.249929 
13   -0.589452 
14   -0.531789 
15   -0.510077 
16   0.203703 
17   0.143666 
18   0.142345 
19   0.151395 
20   0.144617 
21   0.176181 
22   0.17548 
23   0.190782 
24   0.190668 
25   0.419817 
26   0.416815 
 
>  <lowdin_charges> 
26 
1   -0.217123 
2   -0.045805 
3   -0.153619 
4   -0.155031 
5   -0.176436 
6   -0.210615 
7   -0.109137 
8   -0.299009 
9   -0.046762 
10   0.105166 
11   0.095185 
12   -0.112508 
13   -0.359637 
14   -0.399897 
15   -0.190191 
16   0.209145 
17   0.163022 
18   0.164371 
19   0.174088 
20   0.164673 
21   0.162454 
22   0.164537 
23   0.17809 
24   0.180684 
25   0.360224 
26   0.354131 
 
$$$$ 
 
