PCCDB-ID:  11503 
public computational chemistry database (PCCDB) project, http://pccdb.org 
 
 23 23  0  0  0  0  0  0  0  0999 V2000 
    1.0774    0.1187    0.1811 C   0  0  0  0  0  0  0  0  0  0  0  0 
    5.6878   -1.1575   -5.5501 C   0  0  0  0  0  0  0  0  0  0  0  0 
    5.4853    0.1627   -5.1436 C   0  0  0  0  0  0  0  0  0  0  0  0 
    5.5066   -2.1948   -4.6338 C   0  0  0  0  0  0  0  0  0  0  0  0 
    5.1021    0.4402   -3.8309 C   0  0  0  0  0  0  0  0  0  0  0  0 
    5.1235   -1.9112   -3.3221 C   0  0  0  0  0  0  0  0  0  0  0  0 
    4.4571   -0.2864   -1.4905 C   0  0  0  0  0  0  0  0  0  0  0  0 
    2.9252   -0.2617   -1.3568 C   0  0  0  0  0  0  0  0  0  0  0  0 
    4.9150   -0.5911   -2.9002 C   0  0  0  0  0  0  0  0  0  0  0  0 
    2.5247    0.0929    0.0010 N   0  0  0  0  0  0  0  0  0  0  0  0 
    0.8426    0.3303    1.2296 H   0  0  0  0  0  0  0  0  0  0  0  0 
    0.5639   -0.8183   -0.1073 H   0  0  0  0  0  0  0  0  0  0  0  0 
    0.6511    0.9269   -0.4251 H   0  0  0  0  0  0  0  0  0  0  0  0 
    5.9883   -1.3757   -6.5714 H   0  0  0  0  0  0  0  0  0  0  0  0 
    5.6295    0.9781   -5.8479 H   0  0  0  0  0  0  0  0  0  0  0  0 
    5.6671   -3.2258   -4.9388 H   0  0  0  0  0  0  0  0  0  0  0  0 
    4.9515    1.4719   -3.5195 H   0  0  0  0  0  0  0  0  0  0  0  0 
    4.9904   -2.7250   -2.6119 H   0  0  0  0  0  0  0  0  0  0  0  0 
    4.8616   -1.0395   -0.7995 H   0  0  0  0  0  0  0  0  0  0  0  0 
    4.8438    0.6848   -1.1609 H   0  0  0  0  0  0  0  0  0  0  0  0 
    2.5122   -1.2335   -1.6937 H   0  0  0  0  0  0  0  0  0  0  0  0 
    2.5163    0.4964   -2.0382 H   0  0  0  0  0  0  0  0  0  0  0  0 
    2.9274   -0.5826    0.6496 H   0  0  0  0  0  0  0  0  0  0  0  0 
  1 11  1  0  0  0  0 
  2  3  2  0  0  0  0 
  2  4  1  0  0  0  0 
  3  5  1  0  0  0  0 
  4  6  2  0  0  0  0 
  5 17  1  0  0  0  0 
  5  9  2  0  0  0  0 
  6  9  1  0  0  0  0 
  6 18  1  0  0  0  0 
  7  8  1  0  0  0  0 
  7 20  1  0  0  0  0 
  7 19  1  0  0  0  0 
  8 10  1  0  0  0  0 
  9  7  1  0  0  0  0 
 10  1  1  0  0  0  0 
 10 23  1  0  0  0  0 
 12  1  1  0  0  0  0 
 13  1  1  0  0  0  0 
 14  2  1  0  0  0  0 
 15  3  1  0  0  0  0 
 16  4  1  0  0  0  0 
 21  8  1  0  0  0  0 
 22  8  1  0  0  0  0 
M  END 
>  <HBA> 
1 
 
>  <HBD> 
1 
 
>  <TPSA> 
12.03 
 
>  <cid> 
11503 
 
>  <dipole> 
0.94 
 
>  <excitation_energy_1> 
5.216 
 
>  <excitation_energy_2> 
5.308 
 
>  <excitation_energy_3> 
5.368 
 
>  <excitation_energy_4> 
5.426 
 
>  <homo_energy> 
-5.932 
 
>  <homo_lumo_gap> 
6.044 
 
>  <logP> 
1.839 
 
>  <lumo_energy> 
0.112 
 
>  <melting_point> 
33.0 
 
>  <molecular_refractivity> 
43.82 
 
>  <oscillator_strength_1> 
0.0009 
 
>  <oscillator_strength_2> 
0.0013 
 
>  <oscillator_strength_3> 
0.0071 
 
>  <oscillator_strength_4> 
0.0016 
 
>  <open_babel_can_smiles> 
CNCCc1ccccc1 
 
>  <mulliken_charges> 
23 
1   -0.299264 
2   -0.131402 
3   -0.128129 
4   -0.127833 
5   -0.18061 
6   -0.179477 
7   -0.358092 
8   -0.108203 
9   0.168899 
10   -0.538969 
11   0.147625 
12   0.119364 
13   0.151899 
14   0.126961 
15   0.127748 
16   0.127108 
17   0.125058 
18   0.119836 
19   0.133968 
20   0.156663 
21   0.113256 
22   0.142884 
23   0.29071 
 
>  <lowdin_charges> 
23 
1   -0.359566 
2   -0.16001 
3   -0.156956 
4   -0.154758 
5   -0.165618 
6   -0.169714 
7   -0.278176 
8   -0.200303 
9   0.000787 
10   -0.365569 
11   0.14906 
12   0.12077 
13   0.149464 
14   0.155482 
15   0.157598 
16   0.155317 
17   0.154135 
18   0.153776 
19   0.145295 
20   0.156564 
21   0.116874 
22   0.144558 
23   0.25099 
 
$$$$ 
 
