PCCDB-ID:  52899 
public computational chemistry database (PCCDB) project, http://pccdb.org 
 
 31 32  0  0  0  0  0  0  0  0999 V2000 
    0.8849    0.2144    0.0900 C   0  0  0  0  0  0  0  0  0  0  0  0 
    9.3520   -0.4022   -0.0289 C   0  0  0  0  0  0  0  0  0  0  0  0 
    6.8916    0.9947   -0.0004 C   0  0  0  0  0  0  0  0  0  0  0  0 
    5.6594    1.6483    0.0143 C   0  0  0  0  0  0  0  0  0  0  0  0 
    2.7531   -2.4612    0.0330 C   0  0  0  0  0  0  0  0  0  0  0  0 
    2.7283   -3.0843   -1.3733 C   0  0  0  0  0  0  0  0  0  0  0  0 
    5.7947   -1.1860    0.0073 C   0  0  0  0  0  0  0  0  0  0  0  0 
    2.3751    0.0939    0.0620 C   0  0  0  0  0  0  0  0  0  0  0  0 
    6.9567   -0.4151   -0.0031 C   0  0  0  0  0  0  0  0  0  0  0  0 
    3.1852   -1.0223    0.0474 C   0  0  0  0  0  0  0  0  0  0  0  0 
    4.5483   -0.5458    0.0224 C   0  0  0  0  0  0  0  0  0  0  0  0 
    4.5010    0.8753    0.0257 C   0  0  0  0  0  0  0  0  0  0  0  0 
    2.2761   -4.4797   -1.3031 N   0  0  0  0  0  0  0  0  0  0  0  0 
    3.1659    1.2342    0.0470 N   0  0  0  0  0  0  0  0  0  0  0  0 
    8.1360   -1.1236   -0.0170 O   0  0  0  0  0  0  0  0  0  0  0  0 
    0.4208   -0.7691    0.1974 H   0  0  0  0  0  0  0  0  0  0  0  0 
    0.4936    0.6666   -0.8316 H   0  0  0  0  0  0  0  0  0  0  0  0 
    0.5453    0.8364    0.9292 H   0  0  0  0  0  0  0  0  0  0  0  0 
   10.1466   -1.1516   -0.0422 H   0  0  0  0  0  0  0  0  0  0  0  0 
    9.4656    0.2246    0.8668 H   0  0  0  0  0  0  0  0  0  0  0  0 
    9.4433    0.2328   -0.9215 H   0  0  0  0  0  0  0  0  0  0  0  0 
    7.7987    1.5873   -0.0092 H   0  0  0  0  0  0  0  0  0  0  0  0 
    5.6170    2.7346    0.0178 H   0  0  0  0  0  0  0  0  0  0  0  0 
    3.4344   -3.0503    0.6654 H   0  0  0  0  0  0  0  0  0  0  0  0 
    1.7562   -2.5805    0.4731 H   0  0  0  0  0  0  0  0  0  0  0  0 
    3.7191   -2.9513   -1.8429 H   0  0  0  0  0  0  0  0  0  0  0  0 
    2.0128   -2.5300   -1.9932 H   0  0  0  0  0  0  0  0  0  0  0  0 
    5.8856   -2.2680    0.0039 H   0  0  0  0  0  0  0  0  0  0  0  0 
    2.9755   -5.0365   -0.8118 H   0  0  0  0  0  0  0  0  0  0  0  0 
    2.2220   -4.8707   -2.2426 H   0  0  0  0  0  0  0  0  0  0  0  0 
    2.8138    2.1784    0.0686 H   0  0  0  0  0  0  0  0  0  0  0  0 
  1 16  1  0  0  0  0 
  1 18  1  0  0  0  0 
  2 15  1  0  0  0  0 
  2 20  1  0  0  0  0 
  3  4  1  0  0  0  0 
  4 23  1  0  0  0  0 
  4 12  2  0  0  0  0 
  5 10  1  0  0  0  0 
  5 25  1  0  0  0  0 
  5 24  1  0  0  0  0 
  6 13  1  0  0  0  0 
  6  5  1  0  0  0  0 
  7 11  2  0  0  0  0 
  8  1  1  0  0  0  0 
  9  3  2  0  0  0  0 
  9  7  1  0  0  0  0 
 10  8  2  0  0  0  0 
 11 12  1  0  0  0  0 
 11 10  1  0  0  0  0 
 12 14  1  0  0  0  0 
 13 29  1  0  0  0  0 
 14  8  1  0  0  0  0 
 14 31  1  0  0  0  0 
 15  9  1  0  0  0  0 
 17  1  1  0  0  0  0 
 19  2  1  0  0  0  0 
 21  2  1  0  0  0  0 
 22  3  1  0  0  0  0 
 26  6  1  0  0  0  0 
 27  6  1  0  0  0  0 
 28  7  1  0  0  0  0 
 30 13  1  0  0  0  0 
M  END 
>  <HBA> 
2 
 
>  <HBD> 
2 
 
>  <TPSA> 
51.04 
 
>  <cid> 
52899 
 
>  <dipole> 
2.33 
 
>  <excitation_energy_1> 
4.31 
 
>  <excitation_energy_2> 
4.444 
 
>  <excitation_energy_3> 
4.604 
 
>  <excitation_energy_4> 
4.743 
 
>  <homo_energy> 
-4.963 
 
>  <homo_lumo_gap> 
4.939 
 
>  <logP> 
2.686 
 
>  <lumo_energy> 
-0.024 
 
>  <melting_point> 
164.3 
 
>  <molecular_refractivity> 
62.24 
 
>  <oscillator_strength_1> 
0.0606 
 
>  <oscillator_strength_2> 
0.0003 
 
>  <oscillator_strength_3> 
0.1164 
 
>  <oscillator_strength_4> 
0.0004 
 
>  <open_babel_can_smiles> 
NCCc1c(C)[nH]c2c1cc(OC)cc2 
 
>  <mulliken_charges> 
31 
1   -0.53863 
2   -0.207849 
3   -0.218874 
4   -0.179835 
5   -0.343293 
6   -0.130247 
7   -0.276033 
8   0.301346 
9   0.376208 
10   0.022289 
11   0.088086 
12   0.329109 
13   -0.717338 
14   -0.750826 
15   -0.518202 
16   0.178253 
17   0.163147 
18   0.158501 
19   0.16259 
20   0.144964 
21   0.144601 
22   0.122704 
23   0.118686 
24   0.135665 
25   0.148901 
26   0.124181 
27   0.136184 
28   0.124109 
29   0.290931 
30   0.293934 
31   0.316738 
 
>  <lowdin_charges> 
31 
1   -0.447786 
2   -0.279253 
3   -0.219672 
4   -0.179081 
5   -0.274005 
6   -0.205329 
7   -0.195507 
8   0.02564 
9   0.088805 
10   -0.079115 
11   -0.023734 
12   0.020057 
13   -0.56303 
14   -0.213523 
15   -0.211798 
16   0.171731 
17   0.160898 
18   0.159335 
19   0.159475 
20   0.140856 
21   0.140657 
22   0.160077 
23   0.152005 
24   0.146412 
25   0.152271 
26   0.121955 
27   0.141877 
28   0.15961 
29   0.251532 
30   0.252908 
31   0.285733 
 
$$$$ 
 
