PCCDB-ID:  17796 
public computational chemistry database (PCCDB) project, http://pccdb.org 
 
 20 20  0  0  0  0  0  0  0  0999 V2000 
   -0.9615   -0.5434    0.9508 C   0  0  0  0  0  0  0  0  0  0  0  0 
   -0.6126   -1.6250    0.1418 C   0  0  0  0  0  0  0  0  0  0  0  0 
   -0.0960    0.5400    1.0874 C   0  0  0  0  0  0  0  0  0  0  0  0 
    0.6087   -1.6197   -0.5273 C   0  0  0  0  0  0  0  0  0  0  0  0 
    1.9954    1.7697    0.5432 C   0  0  0  0  0  0  0  0  0  0  0  0 
    1.7723    2.0817    2.9833 C   0  0  0  0  0  0  0  0  0  0  0  0 
    3.0053    3.6841    1.6281 C   0  0  0  0  0  0  0  0  0  0  0  0 
    2.2302    2.4763    1.6807 C   0  0  0  0  0  0  0  0  0  0  0  0 
    1.1472    0.5747    0.4333 C   0  0  0  0  0  0  0  0  0  0  0  0 
    1.4699   -0.5365   -0.3769 C   0  0  0  0  0  0  0  0  0  0  0  0 
    1.4065    1.7846    4.0465 N   0  0  0  0  0  0  0  0  0  0  0  0 
    3.6247    4.6673    1.5871 N   0  0  0  0  0  0  0  0  0  0  0  0 
    2.7701   -0.6187   -1.0674 N   0  0  0  0  0  0  0  0  0  0  0  0 
    2.9202   -1.5045   -1.9045 O   0  0  0  0  0  0  0  0  0  0  0  0 
    3.6384    0.2019   -0.7602 O   0  0  0  0  0  0  0  0  0  0  0  0 
   -1.9125   -0.5345    1.4742 H   0  0  0  0  0  0  0  0  0  0  0  0 
   -1.2836   -2.4711    0.0328 H   0  0  0  0  0  0  0  0  0  0  0  0 
   -0.3953    1.3885    1.6918 H   0  0  0  0  0  0  0  0  0  0  0  0 
    0.9167   -2.4452   -1.1566 H   0  0  0  0  0  0  0  0  0  0  0  0 
    2.4573    2.1442   -0.3624 H   0  0  0  0  0  0  0  0  0  0  0  0 
  1  3  1  0  0  0  0 
  1 16  1  0  0  0  0 
  2  1  2  0  0  0  0 
  3 18  1  0  0  0  0 
  4 10  2  0  0  0  0 
  4  2  1  0  0  0  0 
  5  8  2  0  0  0  0 
  6 11  3  0  0  0  0 
  7  8  1  0  0  0  0 
  8  6  1  0  0  0  0 
  9  5  1  0  0  0  0 
  9  3  2  0  0  0  0 
 10  9  1  0  0  0  0 
 12  7  3  0  0  0  0 
 13 15  2  0  0  0  0 
 13 10  1  0  0  0  0 
 14 13  2  0  0  0  0 
 17  2  1  0  0  0  0 
 19  4  1  0  0  0  0 
 20  5  1  0  0  0  0 
M  END 
>  <HBA> 
2 
 
>  <HBD> 
0 
 
>  <TPSA> 
93.4 
 
>  <cid> 
17796 
 
>  <dipole> 
6.81 
 
>  <excitation_energy_1> 
3.578 
 
>  <excitation_energy_2> 
3.738 
 
>  <excitation_energy_3> 
4.143 
 
>  <excitation_energy_4> 
4.322 
 
>  <homo_energy> 
-7.685 
 
>  <homo_lumo_gap> 
4.297 
 
>  <logP> 
2.549 
 
>  <lumo_energy> 
-3.388 
 
>  <melting_point> 
136.53 
 
>  <molecular_refractivity> 
54.47 
 
>  <oscillator_strength_1> 
0.0353 
 
>  <oscillator_strength_2> 
0.113 
 
>  <oscillator_strength_3> 
0.0065 
 
>  <oscillator_strength_4> 
0.0925 
 
>  <open_babel_can_smiles> 
N#CC(=Cc1ccccc1N(=O)=O)C#N 
 
>  <mulliken_charges> 
20 
1   -0.108732 
2   -0.130803 
3   -0.173736 
4   -0.147835 
5   -0.118045 
6   0.297487 
7   0.30182 
8   0.121703 
9   0.115988 
10   0.233236 
11   -0.466508 
12   -0.451595 
13   0.373347 
14   -0.375006 
15   -0.391835 
16   0.167399 
17   0.165841 
18   0.177441 
19   0.198115 
20   0.21172 
 
>  <lowdin_charges> 
20 
1   -0.122299 
2   -0.132963 
3   -0.131431 
4   -0.130305 
5   -0.063689 
6   -0.007151 
7   -0.003202 
8   -0.034536 
9   0.001539 
10   0.009488 
11   -0.087276 
12   -0.082938 
13   0.310049 
14   -0.228762 
15   -0.231966 
16   0.177069 
17   0.176897 
18   0.183988 
19   0.195727 
20   0.201761 
 
$$$$ 
 
