PCCDB-ID:  72198 
public computational chemistry database (PCCDB) project, http://pccdb.org 
 
 24 25  0  0  1  0  0  0  0  0999 V2000 
    3.2507    0.9139    0.3848 C   0  0  0  0  0  0  0  0  0  0  0  0 
    3.5401    2.1832    0.5179 C   0  0  0  0  0  0  0  0  0  0  0  0 
    2.9528   -0.3527    0.2192 C   0  0  0  0  0  0  0  0  0  0  0  0 
    4.7453    2.8596   -0.1053 C   0  0  0  0  0  0  0  0  0  0  0  0 
    2.2562   -4.6109    0.0248 C   0  0  0  0  0  0  0  0  0  0  0  0 
    4.1328   -1.3546    2.2246 C   0  0  0  0  0  0  0  0  0  0  0  0 
    3.6610   -3.4084    1.9440 C   0  0  0  0  0  0  0  0  0  0  0  0 
    3.4867   -4.8079    1.9685 C   0  0  1  0  0  0  0  0  0  0  0  0 
    3.0558   -2.7402    0.8775 C   0  0  0  0  0  0  0  0  0  0  0  0 
    3.9881   -5.5849    2.9606 N   0  0  0  0  0  0  0  0  0  0  0  0 
    2.7776   -5.3913    0.9842 N   0  0  0  0  0  0  0  0  0  0  0  0 
    2.3403   -3.2829   -0.1127 N   0  0  0  0  0  0  0  0  0  0  0  0 
    4.3309   -2.5253    2.7764 N   0  0  0  0  0  0  0  0  0  0  0  0 
    3.3668   -1.4026    1.0677 N   0  0  0  0  0  0  0  0  0  0  0  0 
    4.3637    3.9579   -0.9246 O   0  0  0  0  0  0  0  0  0  0  0  0 
    2.8777    2.8415    1.0842 H   0  0  0  0  0  0  0  0  0  0  0  0 
    2.3451   -0.7086   -0.6087 H   0  0  0  0  0  0  0  0  0  0  0  0 
    5.3492    2.1235   -0.6545 H   0  0  0  0  0  0  0  0  0  0  0  0 
    5.3745    3.2927    0.6805 H   0  0  0  0  0  0  0  0  0  0  0  0 
    1.6900   -5.1335   -0.7433 H   0  0  0  0  0  0  0  0  0  0  0  0 
    4.5064   -0.4111    2.5990 H   0  0  0  0  0  0  0  0  0  0  0  0 
    4.6544   -5.1897    3.6069 H   0  0  0  0  0  0  0  0  0  0  0  0 
    3.9634   -6.5862    2.8353 H   0  0  0  0  0  0  0  0  0  0  0  0 
    3.8129    3.6045   -1.6410 H   0  0  0  0  0  0  0  0  0  0  0  0 
  1  2  2  0  0  0  0 
  2 16  1  0  0  0  0 
  3  1  2  0  0  0  0 
  3 14  1  0  0  0  0 
  4  2  1  0  0  0  0 
  4 19  1  0  0  0  0 
  5 11  2  0  0  0  0 
  6 21  1  0  0  0  0 
  6 13  2  0  0  0  0 
  7  8  1  0  0  0  0 
  7 13  1  0  0  0  0 
  8 10  1  1  0  0  0 
  9 14  1  0  0  0  0 
  9  7  2  0  0  0  0 
 10 22  1  0  0  0  0 
 11  8  1  0  0  0  0 
 12  5  1  0  0  0  0 
 12  9  1  0  0  0  0 
 14  6  1  0  0  0  0 
 15  4  1  0  0  0  0 
 17  3  1  0  0  0  0 
 18  4  1  0  0  0  0 
 20  5  1  0  0  0  0 
 23 10  1  0  0  0  0 
 24 15  1  0  0  0  0 
M  RAD  2   8   2  12   2 
M  END 
>  <HBA> 
6 
 
>  <HBD> 
2 
 
>  <TPSA> 
89.85 
 
>  <cid> 
72198 
 
>  <dipole> 
1.12 
 
>  <excitation_energy_1> 
4.518 
 
>  <excitation_energy_2> 
4.716 
 
>  <excitation_energy_3> 
4.909 
 
>  <excitation_energy_4> 
5.016 
 
>  <homo_energy> 
-6.019 
 
>  <homo_lumo_gap> 
5.176 
 
>  <logP> 
0.608 
 
>  <lumo_energy> 
-0.844 
 
>  <melting_point> 
185.13 
 
>  <molecular_refractivity> 
55.6 
 
>  <oscillator_strength_1> 
0.1974 
 
>  <oscillator_strength_2> 
0.0006 
 
>  <oscillator_strength_3> 
0.0006 
 
>  <oscillator_strength_4> 
0.018 
 
>  <open_babel_can_smiles> 
N[C]1N=C[N]c2c1ncn2C=C=CCO 
 
>  <mulliken_charges> 
24 
1   0.275793 
2   -0.355931 
3   -0.128172 
4   -0.05416 
5   0.166812 
6   0.227013 
7   0.174075 
8   0.496659 
9   0.542585 
10   -0.777879 
11   -0.509397 
12   -0.514312 
13   -0.520728 
14   -0.517284 
15   -0.603294 
16   0.172151 
17   0.2076 
18   0.142007 
19   0.163124 
20   0.146939 
21   0.17267 
22   0.355482 
23   0.34585 
24   0.392396 
 
>  <lowdin_charges> 
24 
1   -0.057442 
2   -0.181468 
3   -0.117123 
4   -0.127455 
5   -0.033137 
6   -0.057048 
7   -0.061621 
8   0.122368 
9   0.062842 
10   -0.43835 
11   -0.220657 
12   -0.207201 
13   -0.182906 
14   -0.000675 
15   -0.458579 
16   0.179031 
17   0.199905 
18   0.141144 
19   0.159407 
20   0.160472 
21   0.17712 
22   0.30104 
23   0.294265 
24   0.346068 
 
$$$$ 
 
