PCCDB-ID:  7656 
public computational chemistry database (PCCDB) project, http://pccdb.org 
 
 30 31  0  0  0  0  0  0  0  0999 V2000 
   -1.2735   -0.4779   -0.7856 C   0  0  0  0  0  0  0  0  0  0  0  0 
    7.6903   -2.9944    1.5761 C   0  0  0  0  0  0  0  0  0  0  0  0 
   -0.3878   -0.4004    0.2923 C   0  0  0  0  0  0  0  0  0  0  0  0 
   -0.7885   -0.3410   -2.0865 C   0  0  0  0  0  0  0  0  0  0  0  0 
    6.5729   -2.3594    2.1243 C   0  0  0  0  0  0  0  0  0  0  0  0 
    7.9967   -2.8064    0.2281 C   0  0  0  0  0  0  0  0  0  0  0  0 
    0.9716   -0.1829    0.0708 C   0  0  0  0  0  0  0  0  0  0  0  0 
    0.5742   -0.1280   -2.3055 C   0  0  0  0  0  0  0  0  0  0  0  0 
    5.7715   -1.5387    1.3314 C   0  0  0  0  0  0  0  0  0  0  0  0 
    7.1901   -1.9870   -0.5645 C   0  0  0  0  0  0  0  0  0  0  0  0 
    2.9416    0.2210   -1.4736 C   0  0  0  0  0  0  0  0  0  0  0  0 
    5.2197   -0.4257   -0.8789 C   0  0  0  0  0  0  0  0  0  0  0  0 
    1.4684   -0.0416   -1.2326 C   0  0  0  0  0  0  0  0  0  0  0  0 
    6.0732   -1.3405   -0.0232 C   0  0  0  0  0  0  0  0  0  0  0  0 
    3.7912   -0.6361   -0.6474 N   0  0  0  0  0  0  0  0  0  0  0  0 
   -2.3329   -0.6471   -0.6120 H   0  0  0  0  0  0  0  0  0  0  0  0 
    8.3150   -3.6331    2.1949 H   0  0  0  0  0  0  0  0  0  0  0  0 
   -0.7579   -0.5083    1.3088 H   0  0  0  0  0  0  0  0  0  0  0  0 
   -1.4680   -0.4059   -2.9324 H   0  0  0  0  0  0  0  0  0  0  0  0 
    6.3262   -2.5029    3.1733 H   0  0  0  0  0  0  0  0  0  0  0  0 
    8.8603   -3.3006   -0.2097 H   0  0  0  0  0  0  0  0  0  0  0  0 
    1.6647   -0.1312    0.9052 H   0  0  0  0  0  0  0  0  0  0  0  0 
    0.9489   -0.0304   -3.3224 H   0  0  0  0  0  0  0  0  0  0  0  0 
    4.8971   -1.0503    1.7510 H   0  0  0  0  0  0  0  0  0  0  0  0 
    7.4294   -1.8494   -1.6170 H   0  0  0  0  0  0  0  0  0  0  0  0 
    3.1815    1.2621   -1.2095 H   0  0  0  0  0  0  0  0  0  0  0  0 
    3.1556    0.1267   -2.5556 H   0  0  0  0  0  0  0  0  0  0  0  0 
    5.5076   -0.5477   -1.9409 H   0  0  0  0  0  0  0  0  0  0  0  0 
    5.4346    0.6243   -0.6285 H   0  0  0  0  0  0  0  0  0  0  0  0 
    3.5608   -1.6127   -0.8276 H   0  0  0  0  0  0  0  0  0  0  0  0 
  1 16  1  0  0  0  0 
  1  3  2  0  0  0  0 
  2  5  1  0  0  0  0 
  2 17  1  0  0  0  0 
  3 18  1  0  0  0  0 
  4  1  1  0  0  0  0 
  5 20  1  0  0  0  0 
  6  2  2  0  0  0  0 
  7  3  1  0  0  0  0 
  7 22  1  0  0  0  0 
  8  4  2  0  0  0  0 
  8 13  1  0  0  0  0 
  9 24  1  0  0  0  0 
  9  5  2  0  0  0  0 
 10 14  2  0  0  0  0 
 10  6  1  0  0  0  0 
 11 13  1  0  0  0  0 
 11 26  1  0  0  0  0 
 11 15  1  0  0  0  0 
 12 15  1  0  0  0  0 
 12 29  1  0  0  0  0 
 12 14  1  0  0  0  0 
 13  7  2  0  0  0  0 
 14  9  1  0  0  0  0 
 19  4  1  0  0  0  0 
 21  6  1  0  0  0  0 
 23  8  1  0  0  0  0 
 25 10  1  0  0  0  0 
 27 11  1  0  0  0  0 
 28 12  1  0  0  0  0 
 30 15  1  0  0  0  0 
M  END 
>  <HBA> 
1 
 
>  <HBD> 
1 
 
>  <TPSA> 
12.03 
 
>  <cid> 
7656 
 
>  <dipole> 
0.77 
 
>  <excitation_energy_1> 
4.997 
 
>  <excitation_energy_2> 
5.19 
 
>  <excitation_energy_3> 
5.215 
 
>  <excitation_energy_4> 
5.314 
 
>  <homo_energy> 
-6.09 
 
>  <homo_lumo_gap> 
6.014 
 
>  <logP> 
3.367 
 
>  <lumo_energy> 
-0.076 
 
>  <melting_point> 
64.06 
 
>  <molecular_refractivity> 
63.5 
 
>  <oscillator_strength_1> 
0.0026 
 
>  <oscillator_strength_2> 
0.0007 
 
>  <oscillator_strength_3> 
0.0056 
 
>  <oscillator_strength_4> 
0.0051 
 
>  <open_babel_can_smiles> 
N(Cc1ccccc1)Cc1ccccc1 
 
>  <mulliken_charges> 
30 
1   -0.128722 
2   -0.128743 
3   -0.131473 
4   -0.128772 
5   -0.131526 
6   -0.128768 
7   -0.163952 
8   -0.185751 
9   -0.164203 
10   -0.185821 
11   -0.184614 
12   -0.184841 
13   0.131747 
14   0.132166 
15   -0.557477 
16   0.127176 
17   0.12711 
18   0.128175 
19   0.127374 
20   0.12811 
21   0.12733 
22   0.142566 
23   0.121791 
24   0.14272 
25   0.121677 
26   0.154549 
27   0.118365 
28   0.118459 
29   0.154633 
30   0.300713 
 
>  <lowdin_charges> 
30 
1   -0.157455 
2   -0.161304 
3   -0.154979 
4   -0.158337 
5   -0.154213 
6   -0.157433 
7   -0.159998 
8   -0.167633 
9   -0.159279 
10   -0.167051 
11   -0.194101 
12   -0.194141 
13   -0.014028 
14   -0.014433 
15   -0.356196 
16   0.15489 
17   0.157929 
18   0.155833 
19   0.157362 
20   0.155132 
21   0.157141 
22   0.165443 
23   0.152701 
24   0.1652 
25   0.151956 
26   0.149517 
27   0.120645 
28   0.121274 
29   0.14949 
30   0.256068 
 
$$$$ 
 
