PCCDB-ID:  8597 
public computational chemistry database (PCCDB) project, http://pccdb.org 
 
 21 21  0  0  0  0  0  0  0  0999 V2000 
    1.1326    2.6227   -0.1344 C   0  0  0  0  0  0  0  0  0  0  0  0 
    4.8765   -3.3689   -0.4857 C   0  0  0  0  0  0  0  0  0  0  0  0 
    2.5492    2.3645    0.2878 C   0  0  0  0  0  0  0  0  0  0  0  0 
    5.1983   -2.0115   -1.0386 C   0  0  0  0  0  0  0  0  0  0  0  0 
    4.5095    1.3612   -0.5215 C   0  0  0  0  0  0  0  0  0  0  0  0 
    5.2243    0.2378   -0.3736 C   0  0  0  0  0  0  0  0  0  0  0  0 
    5.4629    2.4958   -0.6976 C   0  0  0  0  0  0  0  0  0  0  0  0 
    6.6702    0.6072   -0.3691 C   0  0  0  0  0  0  0  0  0  0  0  0 
    3.1235    2.7728    1.2569 O   0  0  0  0  0  0  0  0  0  0  0  0 
    5.7123   -1.7383   -2.0860 O   0  0  0  0  0  0  0  0  0  0  0  0 
    5.2333    3.6446   -0.9372 O   0  0  0  0  0  0  0  0  0  0  0  0 
    7.6263   -0.0862   -0.1816 O   0  0  0  0  0  0  0  0  0  0  0  0 
    3.1683    1.5087   -0.6363 O   0  0  0  0  0  0  0  0  0  0  0  0 
    4.7906   -1.0220   -0.1312 O   0  0  0  0  0  0  0  0  0  0  0  0 
    6.7520    1.9813   -0.5823 O   0  0  0  0  0  0  0  0  0  0  0  0 
    0.6123    1.6782   -0.3203 H   0  0  0  0  0  0  0  0  0  0  0  0 
    1.1290    3.1926   -1.0697 H   0  0  0  0  0  0  0  0  0  0  0  0 
    0.6226    3.1892    0.6448 H   0  0  0  0  0  0  0  0  0  0  0  0 
    4.9965   -4.1154   -1.2711 H   0  0  0  0  0  0  0  0  0  0  0  0 
    3.8592   -3.3921   -0.0850 H   0  0  0  0  0  0  0  0  0  0  0  0 
    5.5634   -3.5925    0.3383 H   0  0  0  0  0  0  0  0  0  0  0  0 
  1  3  1  0  0  0  0 
  1 18  1  0  0  0  0 
  2 20  1  0  0  0  0 
  2 21  1  0  0  0  0 
  3  9  2  0  0  0  0 
  4  2  1  0  0  0  0 
  4 14  1  0  0  0  0 
  5  6  2  0  0  0  0 
  6  8  1  0  0  0  0 
  6 14  1  0  0  0  0 
  7 15  1  0  0  0  0 
  7  5  1  0  0  0  0 
  8 12  2  0  0  0  0 
 10  4  2  0  0  0  0 
 11  7  2  0  0  0  0 
 13  5  1  0  0  0  0 
 13  3  1  0  0  0  0 
 15  8  1  0  0  0  0 
 16  1  1  0  0  0  0 
 17  1  1  0  0  0  0 
 19  2  1  0  0  0  0 
M  END 
>  <HBA> 
7 
 
>  <HBD> 
0 
 
>  <TPSA> 
95.97 
 
>  <cid> 
8597 
 
>  <dipole> 
6.17 
 
>  <excitation_energy_1> 
3.977 
 
>  <excitation_energy_2> 
4.302 
 
>  <excitation_energy_3> 
4.44 
 
>  <excitation_energy_4> 
4.717 
 
>  <homo_energy> 
-7.989 
 
>  <homo_lumo_gap> 
5.064 
 
>  <logP> 
-0.592 
 
>  <lumo_energy> 
-2.925 
 
>  <melting_point> 
70.03 
 
>  <molecular_refractivity> 
42.04 
 
>  <oscillator_strength_1> 
0.001 
 
>  <oscillator_strength_2> 
0.0005 
 
>  <oscillator_strength_3> 
0.0895 
 
>  <oscillator_strength_4> 
0.0001 
 
>  <open_babel_can_smiles> 
CC(=O)OC1=C(OC(=O)C)C(=O)OC1=O 
 
>  <mulliken_charges> 
21 
1   -0.533065 
2   -0.533758 
3   0.604579 
4   0.605001 
5   0.289959 
6   0.289572 
7   0.632994 
8   0.633289 
9   -0.41369 
10   -0.413889 
11   -0.417817 
12   -0.417961 
13   -0.521032 
14   -0.520977 
15   -0.479201 
16   0.194453 
17   0.205259 
18   0.198194 
19   0.19792 
20   0.193255 
21   0.206914 
 
>  <lowdin_charges> 
21 
1   -0.460494 
2   -0.459303 
3   0.2288 
4   0.226737 
5   0.061573 
6   0.059247 
7   0.204182 
8   0.210608 
9   -0.204946 
10   -0.204689 
11   -0.168612 
12   -0.171352 
13   -0.148907 
14   -0.148019 
15   -0.152035 
16   0.185669 
17   0.191762 
18   0.186509 
19   0.185978 
20   0.183769 
21   0.193524 
 
$$$$ 
 
