PCCDB-ID:  60215 
public computational chemistry database (PCCDB) project, http://pccdb.org 
 
 25 27  0  0  0  0  0  0  0  0999 V2000 
   -2.9993   -1.2011   -0.0507 C   0  0  0  0  0  0  0  0  0  0  0  0 
    3.0186   -1.2128    0.0324 C   0  0  0  0  0  0  0  0  0  0  0  0 
   -1.6399   -1.4977   -0.0295 C   0  0  0  0  0  0  0  0  0  0  0  0 
    1.6555   -1.4974    0.0161 C   0  0  0  0  0  0  0  0  0  0  0  0 
    0.0204    1.8458   -0.0370 C   0  0  0  0  0  0  0  0  0  0  0  0 
   -2.5191    1.2011   -0.0676 C   0  0  0  0  0  0  0  0  0  0  0  0 
    2.5527    1.1825    0.0033 C   0  0  0  0  0  0  0  0  0  0  0  0 
   -1.1712    0.9079   -0.0457 C   0  0  0  0  0  0  0  0  0  0  0  0 
    1.1977    0.8928   -0.0123 C   0  0  0  0  0  0  0  0  0  0  0  0 
   -3.4360    0.1320   -0.0703 C   0  0  0  0  0  0  0  0  0  0  0  0 
    3.4661    0.1184    0.0260 C   0  0  0  0  0  0  0  0  0  0  0  0 
   -0.7230   -0.4404   -0.0267 C   0  0  0  0  0  0  0  0  0  0  0  0 
    0.7378   -0.4438   -0.0062 C   0  0  0  0  0  0  0  0  0  0  0  0 
   -4.8557    0.3076   -0.0911 N   0  0  0  0  0  0  0  0  0  0  0  0 
    4.7919    0.4410    0.0416 O   0  0  0  0  0  0  0  0  0  0  0  0 
   -5.2354    1.4748   -0.1093 O   0  0  0  0  0  0  0  0  0  0  0  0 
   -3.7518   -1.9842   -0.0531 H   0  0  0  0  0  0  0  0  0  0  0  0 
    3.7443   -2.0237    0.0502 H   0  0  0  0  0  0  0  0  0  0  0  0 
   -1.3017   -2.5301   -0.0154 H   0  0  0  0  0  0  0  0  0  0  0  0 
    1.3209   -2.5313    0.0208 H   0  0  0  0  0  0  0  0  0  0  0  0 
    0.0126    2.5110    0.8370 H   0  0  0  0  0  0  0  0  0  0  0  0 
    0.0373    2.4970   -0.9215 H   0  0  0  0  0  0  0  0  0  0  0  0 
   -2.9047    2.2160   -0.0831 H   0  0  0  0  0  0  0  0  0  0  0  0 
    2.9302    2.2006   -0.0013 H   0  0  0  0  0  0  0  0  0  0  0  0 
    5.3186   -0.3735    0.0544 H   0  0  0  0  0  0  0  0  0  0  0  0 
  1  3  2  0  0  0  0 
  2 18  1  0  0  0  0 
  3 12  1  0  0  0  0 
  3 19  1  0  0  0  0 
  4 20  1  0  0  0  0 
  4  2  2  0  0  0  0 
  5  9  1  0  0  0  0 
  5 21  1  0  0  0  0 
  6  8  1  0  0  0  0 
  7 11  2  0  0  0  0 
  8  5  1  0  0  0  0 
  8 12  2  0  0  0  0 
  9 13  2  0  0  0  0 
  9  7  1  0  0  0  0 
 10  6  2  0  0  0  0 
 10  1  1  0  0  0  0 
 11  2  1  0  0  0  0 
 11 15  1  0  0  0  0 
 12 13  1  0  0  0  0 
 13  4  1  0  0  0  0 
 14 10  1  0  0  0  0 
 15 25  1  0  0  0  0 
 16 14  2  0  0  0  0 
 17  1  1  0  0  0  0 
 22  5  1  0  0  0  0 
 23  6  1  0  0  0  0 
 24  7  1  0  0  0  0 
M  END 
>  <HBA> 
3 
 
>  <HBD> 
1 
 
>  <TPSA> 
49.66 
 
>  <cid> 
60215 
 
>  <dipole> 
6.18 
 
>  <excitation_energy_1> 
1.518 
 
>  <excitation_energy_2> 
3.247 
 
>  <excitation_energy_3> 
3.837 
 
>  <excitation_energy_4> 
4.08 
 
>  <homo_energy> 
-5.614 
 
>  <homo_lumo_gap> 
3.148 
 
>  <logP> 
3.361 
 
>  <lumo_energy> 
-2.465 
 
>  <melting_point> 
142.58 
 
>  <molecular_refractivity> 
62.37 
 
>  <oscillator_strength_1> 
0.0003 
 
>  <oscillator_strength_2> 
0.5262 
 
>  <oscillator_strength_3> 
0.0195 
 
>  <oscillator_strength_4> 
0.0033 
 
>  <open_babel_can_smiles> 
O=Nc1ccc2c(c1)Cc1c2ccc(c1)O 
 
>  <mulliken_charges> 
25 
1   -0.137249 
2   -0.205213 
3   -0.202944 
4   -0.188522 
5   -0.418611 
6   -0.211069 
7   -0.244207 
8   0.099458 
9   0.110445 
10   0.223839 
11   0.369502 
12   0.108101 
13   0.075892 
14   -0.072536 
15   -0.638833 
16   -0.302986 
17   0.1526 
18   0.125008 
19   0.138064 
20   0.14019 
21   0.183168 
22   0.183098 
23   0.157376 
24   0.143943 
25   0.411483 
 
>  <lowdin_charges> 
25 
1   -0.129633 
2   -0.212343 
3   -0.167506 
4   -0.139711 
5   -0.273838 
6   -0.141848 
7   -0.190108 
8   -0.004172 
9   0.014417 
10   -0.026952 
11   0.114342 
12   0.01706 
13   -0.035725 
14   0.035312 
15   -0.370645 
16   -0.199112 
17   0.173873 
18   0.157706 
19   0.160936 
20   0.161916 
21   0.175389 
22   0.175302 
23   0.17494 
24   0.169883 
25   0.360519 
 
$$$$ 
 
