PCCDB-ID:  60257 
public computational chemistry database (PCCDB) project, http://pccdb.org 
 
 41 41  0  0  1  0  0  0  0  0999 V2000 
    4.0458    2.3387   -6.2150 C   0  0  0  0  0  0  0  0  0  0  0  0 
    7.2564   -1.0552   -1.4652 C   0  0  0  0  0  0  0  0  0  0  0  0 
    3.7950    0.9217   -5.6887 C   0  0  0  0  0  0  0  0  0  0  0  0 
    4.5976    0.5965   -4.4229 C   0  0  0  0  0  0  0  0  0  0  0  0 
    4.3347   -0.8149   -3.8831 C   0  0  0  0  0  0  0  0  0  0  0  0 
    8.9310   -4.4239   -5.0127 C   0  0  0  0  0  0  0  0  0  0  0  0 
    6.7128   -4.5316   -5.9193 C   0  0  0  0  0  0  0  0  0  0  0  0 
    9.4334   -5.0392   -6.1550 C   0  0  0  0  0  0  0  0  0  0  0  0 
    7.2037   -5.1419   -7.0702 C   0  0  0  0  0  0  0  0  0  0  0  0 
    5.1280   -1.1589   -2.6148 C   0  0  0  0  0  0  0  0  0  0  0  0 
    7.1849   -1.9093   -3.7733 C   0  0  0  0  0  0  0  0  0  0  0  0 
    7.5623   -4.1569   -4.8710 C   0  0  0  0  0  0  0  0  0  0  0  0 
    8.5771   -5.4049   -7.2077 C   0  0  0  0  0  0  0  0  0  0  0  0 
    7.0325   -3.4449   -3.6408 C   0  0  1  0  0  0  0  0  0  0  0  0 
    9.0860   -5.9686   -8.3822 N   0  0  0  0  0  0  0  0  0  0  0  0 
    6.5787   -1.0569   -2.7575 N   0  0  0  0  0  0  0  0  0  0  0  0 
    7.7328   -3.8328   -2.4547 O   0  0  0  0  0  0  0  0  0  0  0  0 
    3.4659    2.5384   -7.1235 H   0  0  0  0  0  0  0  0  0  0  0  0 
    5.1055    2.4890   -6.4555 H   0  0  0  0  0  0  0  0  0  0  0  0 
    3.7673    3.0930   -5.4687 H   0  0  0  0  0  0  0  0  0  0  0  0 
    6.9232   -0.1829   -0.8883 H   0  0  0  0  0  0  0  0  0  0  0  0 
    8.3366   -0.9674   -1.6206 H   0  0  0  0  0  0  0  0  0  0  0  0 
    7.0791   -1.9607   -0.8642 H   0  0  0  0  0  0  0  0  0  0  0  0 
    4.0441    0.1921   -6.4729 H   0  0  0  0  0  0  0  0  0  0  0  0 
    2.7221    0.7920   -5.4847 H   0  0  0  0  0  0  0  0  0  0  0  0 
    4.3553    1.3303   -3.6394 H   0  0  0  0  0  0  0  0  0  0  0  0 
    5.6702    0.7150   -4.6216 H   0  0  0  0  0  0  0  0  0  0  0  0 
    4.5338   -1.5536   -4.6723 H   0  0  0  0  0  0  0  0  0  0  0  0 
    3.2677   -0.9231   -3.6414 H   0  0  0  0  0  0  0  0  0  0  0  0 
    9.6060   -4.1553   -4.2048 H   0  0  0  0  0  0  0  0  0  0  0  0 
    5.6429   -4.3488   -5.8344 H   0  0  0  0  0  0  0  0  0  0  0  0 
   10.5001   -5.2366   -6.2402 H   0  0  0  0  0  0  0  0  0  0  0  0 
    6.5212   -5.4235   -7.8695 H   0  0  0  0  0  0  0  0  0  0  0  0 
    4.8100   -2.1560   -2.2487 H   0  0  0  0  0  0  0  0  0  0  0  0 
    4.8411   -0.4477   -1.8284 H   0  0  0  0  0  0  0  0  0  0  0  0 
    6.7794   -1.6290   -4.7524 H   0  0  0  0  0  0  0  0  0  0  0  0 
    8.2586   -1.6868   -3.8042 H   0  0  0  0  0  0  0  0  0  0  0  0 
    5.9610   -3.6817   -3.5361 H   0  0  0  0  0  0  0  0  0  0  0  0 
    9.9677   -6.4544   -8.2726 H   0  0  0  0  0  0  0  0  0  0  0  0 
    8.4237   -6.5243   -8.9096 H   0  0  0  0  0  0  0  0  0  0  0  0 
    7.7006   -4.8017   -2.4077 H   0  0  0  0  0  0  0  0  0  0  0  0 
  1  3  1  0  0  0  0 
  1 20  1  0  0  0  0 
  2 21  1  0  0  0  0 
  2 23  1  0  0  0  0 
  3 25  1  0  0  0  0 
  3  4  1  0  0  0  0 
  4  5  1  0  0  0  0 
  4 26  1  0  0  0  0 
  5 29  1  0  0  0  0 
  5 10  1  0  0  0  0 
  6 12  1  0  0  0  0 
  6 30  1  0  0  0  0 
  7 31  1  0  0  0  0 
  7 12  2  0  0  0  0 
  8  6  2  0  0  0  0 
  9  7  1  0  0  0  0 
 10 34  1  0  0  0  0 
 10 35  1  0  0  0  0 
 11 14  1  0  0  0  0 
 11 16  1  0  0  0  0 
 12 14  1  0  0  0  0 
 13  9  2  0  0  0  0 
 13  8  1  0  0  0  0 
 14 38  1  1  0  0  0 
 14 17  1  0  0  0  0 
 15 39  1  0  0  0  0 
 15 13  1  0  0  0  0 
 16 10  1  0  0  0  0 
 16  2  1  0  0  0  0 
 17 41  1  0  0  0  0 
 18  1  1  0  0  0  0 
 19  1  1  0  0  0  0 
 22  2  1  0  0  0  0 
 24  3  1  0  0  0  0 
 27  4  1  0  0  0  0 
 28  5  1  0  0  0  0 
 32  8  1  0  0  0  0 
 33  9  1  0  0  0  0 
 36 11  1  0  0  0  0 
 37 11  1  0  0  0  0 
 40 15  1  0  0  0  0 
M  END 
>  <HBA> 
3 
 
>  <HBD> 
2 
 
>  <TPSA> 
49.49 
 
>  <cid> 
60257 
 
>  <dipole> 
3.54 
 
>  <excitation_energy_1> 
4.338 
 
>  <excitation_energy_2> 
4.574 
 
>  <excitation_energy_3> 
4.621 
 
>  <excitation_energy_4> 
4.751 
 
>  <homo_energy> 
-5.064 
 
>  <homo_lumo_gap> 
5.135 
 
>  <logP> 
3.005 
 
>  <lumo_energy> 
0.071 
 
>  <melting_point> 
73.91 
 
>  <molecular_refractivity> 
73.52 
 
>  <oscillator_strength_1> 
0.0134 
 
>  <oscillator_strength_2> 
0.0112 
 
>  <oscillator_strength_3> 
0.0988 
 
>  <oscillator_strength_4> 
0.0139 
 
>  <open_babel_can_smiles> 
CCCCCN(C[C@@H](c1ccc(cc1)N)O)C 
 
>  <mulliken_charges> 
41 
1   -0.440781 
2   -0.284411 
3   -0.246899 
4   -0.238839 
5   -0.279871 
6   -0.18993 
7   -0.193787 
8   -0.172984 
9   -0.173818 
10   -0.114432 
11   -0.139811 
12   0.107402 
13   0.311189 
14   0.061456 
15   -0.787487 
16   -0.376453 
17   -0.626721 
18   0.138608 
19   0.14252 
20   0.140235 
21   0.132519 
22   0.142021 
23   0.140952 
24   0.127458 
25   0.125646 
26   0.122917 
27   0.149906 
28   0.128706 
29   0.127729 
30   0.138234 
31   0.12248 
32   0.116955 
33   0.11638 
34   0.111226 
35   0.130693 
36   0.144108 
37   0.144146 
38   0.11646 
39   0.319513 
40   0.319146 
41   0.387621 
 
>  <lowdin_charges> 
41 
1   -0.444105 
2   -0.353851 
3   -0.2714 
4   -0.275066 
5   -0.283425 
6   -0.156518 
7   -0.155389 
8   -0.197517 
9   -0.201238 
10   -0.199253 
11   -0.209314 
12   -0.055869 
13   0.060036 
14   -0.014974 
15   -0.490178 
16   -0.183095 
17   -0.457865 
18   0.1478 
19   0.145464 
20   0.146503 
21   0.139893 
22   0.147088 
23   0.133653 
24   0.13794 
25   0.13429 
26   0.137787 
27   0.146754 
28   0.136591 
29   0.14136 
30   0.163535 
31   0.151652 
32   0.150605 
33   0.153293 
34   0.11615 
35   0.143235 
36   0.148457 
37   0.149624 
38   0.126244 
39   0.275166 
40   0.276361 
41   0.339573 
 
$$$$ 
 
