PCCDB-ID:  20905 
public computational chemistry database (PCCDB) project, http://pccdb.org 
 
 19 19  0  0  1  0  0  0  0  0999 V2000 
    0.8611    0.0273    0.1585 C   0  0  0  0  0  0  0  0  0  0  0  0 
    3.3271   -1.1991    1.8989 C   0  0  0  0  0  0  0  0  0  0  0  0 
    3.1262   -1.1599    0.3813 C   0  0  0  0  0  0  0  0  0  0  0  0 
    4.1056    0.0479    2.3354 C   0  0  0  0  0  0  0  0  0  0  0  0 
    2.3815    0.1228   -0.0483 C   0  0  2  0  0  0  0  0  0  0  0  0 
    3.6032    1.2889    1.6166 C   0  0  0  0  0  0  0  0  0  0  0  0 
    2.8656    1.3492    0.5899 N   0  0  0  0  0  0  0  0  0  0  0  0 
    4.0314    2.4803    2.1416 O   0  0  0  0  0  0  0  0  0  0  0  0 
    0.4361   -0.7793   -0.4505 H   0  0  0  0  0  0  0  0  0  0  0  0 
    0.3856    0.9699   -0.1288 H   0  0  0  0  0  0  0  0  0  0  0  0 
    0.6114   -0.1658    1.2084 H   0  0  0  0  0  0  0  0  0  0  0  0 
    3.8591   -2.1062    2.2071 H   0  0  0  0  0  0  0  0  0  0  0  0 
    2.3541   -1.2163    2.4053 H   0  0  0  0  0  0  0  0  0  0  0  0 
    2.5750   -2.0436    0.0378 H   0  0  0  0  0  0  0  0  0  0  0  0 
    4.1090   -1.1871   -0.1098 H   0  0  0  0  0  0  0  0  0  0  0  0 
    5.1771   -0.0687    2.1132 H   0  0  0  0  0  0  0  0  0  0  0  0 
    4.0293    0.1966    3.4219 H   0  0  0  0  0  0  0  0  0  0  0  0 
    2.5473    0.2630   -1.1254 H   0  0  0  0  0  0  0  0  0  0  0  0 
    4.5581    2.3017    2.9357 H   0  0  0  0  0  0  0  0  0  0  0  0 
  1 11  1  0  0  0  0 
  2 12  1  0  0  0  0 
  2  4  1  0  0  0  0 
  2 13  1  0  0  0  0 
  3  2  1  0  0  0  0 
  4 17  1  0  0  0  0 
  5 18  1  6  0  0  0 
  5  1  1  0  0  0  0 
  5  3  1  0  0  0  0 
  5  7  1  0  0  0  0 
  6  8  1  0  0  0  0 
  6  4  1  0  0  0  0 
  7  6  2  0  0  0  0 
  8 19  1  0  0  0  0 
  9  1  1  0  0  0  0 
 10  1  1  0  0  0  0 
 14  3  1  0  0  0  0 
 15  3  1  0  0  0  0 
 16  4  1  0  0  0  0 
M  END 
>  <HBA> 
2 
 
>  <HBD> 
1 
 
>  <TPSA> 
29.1 
 
>  <cid> 
20905 
 
>  <dipole> 
3.57 
 
>  <excitation_energy_1> 
5.601 
 
>  <excitation_energy_2> 
5.676 
 
>  <excitation_energy_3> 
5.883 
 
>  <excitation_energy_4> 
6.122 
 
>  <homo_energy> 
-6.351 
 
>  <homo_lumo_gap> 
7.208 
 
>  <logP> 
1.004 
 
>  <lumo_energy> 
0.857 
 
>  <melting_point> 
44.59 
 
>  <molecular_refractivity> 
35.76 
 
>  <oscillator_strength_1> 
0.0026 
 
>  <oscillator_strength_2> 
0.0082 
 
>  <oscillator_strength_3> 
0.0019 
 
>  <oscillator_strength_4> 
0.0065 
 
>  <open_babel_can_smiles> 
C[C@@H]1CCCC(=N1)O 
 
>  <mulliken_charges> 
19 
1   -0.440472 
2   -0.267464 
3   -0.28131 
4   -0.372348 
5   0.028763 
6   0.489527 
7   -0.418647 
8   -0.587333 
9   0.135359 
10   0.16372 
11   0.138914 
12   0.139498 
13   0.148556 
14   0.136353 
15   0.135724 
16   0.166892 
17   0.146948 
18   0.136335 
19   0.400983 
 
>  <lowdin_charges> 
19 
1   -0.448278 
2   -0.276164 
3   -0.291641 
4   -0.310675 
5   -0.056175 
6   0.115018 
7   -0.205423 
8   -0.371225 
9   0.147244 
10   0.161745 
11   0.143597 
12   0.149331 
13   0.146565 
14   0.14978 
15   0.142796 
16   0.158704 
17   0.151218 
18   0.142189 
19   0.351396 
 
$$$$ 
 
