PCCDB-ID:  32499 
public computational chemistry database (PCCDB) project, http://pccdb.org 
 
 32 33  0  0  0  0  0  0  0  0999 V2000 
    3.4775    2.1552   -4.1063 C   0  0  0  0  0  0  0  0  0  0  0  0 
    4.3935    2.4343   -3.0915 C   0  0  0  0  0  0  0  0  0  0  0  0 
    2.4242    1.2720   -3.8590 C   0  0  0  0  0  0  0  0  0  0  0  0 
    4.2577    1.8326   -1.8390 C   0  0  0  0  0  0  0  0  0  0  0  0 
    2.2923    0.6748   -2.6054 C   0  0  0  0  0  0  0  0  0  0  0  0 
    3.0647    0.2711   -0.2284 C   0  0  0  0  0  0  0  0  0  0  0  0 
    3.6012   -1.1885   -0.1836 C   0  0  0  0  0  0  0  0  0  0  0  0 
    5.6825   -1.4944   -1.6091 C   0  0  0  0  0  0  0  0  0  0  0  0 
    5.9475   -1.1777    0.7652 C   0  0  0  0  0  0  0  0  0  0  0  0 
    7.0607   -1.5693   -1.7535 C   0  0  0  0  0  0  0  0  0  0  0  0 
    7.3315   -1.2498    0.6338 C   0  0  0  0  0  0  0  0  0  0  0  0 
   10.4095   -1.4142    0.2572 C   0  0  0  0  0  0  0  0  0  0  0  0 
    3.2074    0.9436   -1.5771 C   0  0  0  0  0  0  0  0  0  0  0  0 
    5.1000   -1.2960   -0.3460 C   0  0  0  0  0  0  0  0  0  0  0  0 
    7.9062   -1.4476   -0.6350 C   0  0  0  0  0  0  0  0  0  0  0  0 
    9.3647   -1.5391   -0.8696 C   0  0  0  0  0  0  0  0  0  0  0  0 
   10.2078   -1.2247    1.4348 O   0  0  0  0  0  0  0  0  0  0  0  0 
    9.8543   -1.7185   -1.9790 O   0  0  0  0  0  0  0  0  0  0  0  0 
    3.5802    2.6248   -5.0809 H   0  0  0  0  0  0  0  0  0  0  0  0 
    5.2152    3.1222   -3.2726 H   0  0  0  0  0  0  0  0  0  0  0  0 
    1.7008    1.0534   -4.6404 H   0  0  0  0  0  0  0  0  0  0  0  0 
    4.9763    2.0556   -1.0538 H   0  0  0  0  0  0  0  0  0  0  0  0 
    1.4629   -0.0051   -2.4189 H   0  0  0  0  0  0  0  0  0  0  0  0 
    3.5814    0.8602    0.5387 H   0  0  0  0  0  0  0  0  0  0  0  0 
    2.0052    0.2416    0.0561 H   0  0  0  0  0  0  0  0  0  0  0  0 
    3.1008   -1.7717   -0.9658 H   0  0  0  0  0  0  0  0  0  0  0  0 
    3.3088   -1.6266    0.7788 H   0  0  0  0  0  0  0  0  0  0  0  0 
    5.0432   -1.5868   -2.4829 H   0  0  0  0  0  0  0  0  0  0  0  0 
    5.5148   -1.0322    1.7525 H   0  0  0  0  0  0  0  0  0  0  0  0 
    7.5109   -1.7237   -2.7286 H   0  0  0  0  0  0  0  0  0  0  0  0 
    7.9668   -1.1604    1.5056 H   0  0  0  0  0  0  0  0  0  0  0  0 
   11.4318   -1.5220   -0.1624 H   0  0  0  0  0  0  0  0  0  0  0  0 
  1  3  2  0  0  0  0 
  1  2  1  0  0  0  0 
  2  4  2  0  0  0  0 
  3  5  1  0  0  0  0 
  4 13  1  0  0  0  0 
  4 22  1  0  0  0  0 
  5 23  1  0  0  0  0 
  5 13  2  0  0  0  0 
  6  7  1  0  0  0  0 
  6 25  1  0  0  0  0 
  6 24  1  0  0  0  0 
  7 27  1  0  0  0  0 
  8 14  1  0  0  0  0 
  9 29  1  0  0  0  0 
 10  8  2  0  0  0  0 
 10 15  1  0  0  0  0 
 11  9  1  0  0  0  0 
 11 31  1  0  0  0  0 
 12 17  2  0  0  0  0 
 13  6  1  0  0  0  0 
 14  7  1  0  0  0  0 
 14  9  2  0  0  0  0 
 15 11  2  0  0  0  0 
 16 15  1  0  0  0  0 
 16 12  1  0  0  0  0 
 18 16  2  0  0  0  0 
 19  1  1  0  0  0  0 
 20  2  1  0  0  0  0 
 21  3  1  0  0  0  0 
 26  7  1  0  0  0  0 
 28  8  1  0  0  0  0 
 30 10  1  0  0  0  0 
 32 12  1  0  0  0  0 
M  END 
>  <HBA> 
2 
 
>  <HBD> 
0 
 
>  <TPSA> 
34.14 
 
>  <cid> 
32499 
 
>  <dipole> 
2.97 
 
>  <excitation_energy_1> 
2.583 
 
>  <excitation_energy_2> 
3.356 
 
>  <excitation_energy_3> 
3.554 
 
>  <excitation_energy_4> 
3.678 
 
>  <homo_energy> 
-6.596 
 
>  <homo_lumo_gap> 
3.883 
 
>  <logP> 
2.853 
 
>  <lumo_energy> 
-2.713 
 
>  <melting_point> 
104.5 
 
>  <molecular_refractivity> 
71.1 
 
>  <oscillator_strength_1> 
0.0 
 
>  <oscillator_strength_2> 
0.0174 
 
>  <oscillator_strength_3> 
0.0135 
 
>  <oscillator_strength_4> 
0.008 
 
>  <open_babel_can_smiles> 
O=CC(=O)c1ccc(cc1)CCc1ccccc1 
 
>  <mulliken_charges> 
32 
1   -0.131673 
2   -0.12749 
3   -0.128102 
4   -0.178957 
5   -0.184852 
6   -0.348612 
7   -0.350792 
8   -0.179515 
9   -0.194349 
10   -0.149886 
11   -0.175629 
12   0.195024 
13   0.174957 
14   0.189856 
15   0.059199 
16   0.337062 
17   -0.364079 
18   -0.452386 
19   0.130251 
20   0.131708 
21   0.129722 
22   0.129197 
23   0.121958 
24   0.1501 
25   0.150145 
26   0.153298 
27   0.14951 
28   0.143715 
29   0.132854 
30   0.165013 
31   0.181575 
32   0.141177 
 
>  <lowdin_charges> 
32 
1   -0.159327 
2   -0.15349 
3   -0.156713 
4   -0.164979 
5   -0.169656 
6   -0.268893 
7   -0.27353 
8   -0.161253 
9   -0.169458 
10   -0.122169 
11   -0.14113 
12   0.035555 
13   -0.005723 
14   0.023131 
15   -0.054741 
16   0.118923 
17   -0.184625 
18   -0.21955 
19   0.157659 
20   0.159075 
21   0.158433 
22   0.158335 
23   0.1535 
24   0.153319 
25   0.153061 
26   0.155426 
27   0.154622 
28   0.165829 
29   0.158499 
30   0.176637 
31   0.183036 
32   0.140197 
 
$$$$ 
 
