PCCDB-ID:  41713 
public computational chemistry database (PCCDB) project, http://pccdb.org 
 
 34 33  0  0  1  0  0  0  0  0999 V2000 
    7.4836   -0.2469    3.2356 C   0  0  0  0  0  0  0  0  0  0  0  0 
    9.2178   -4.4644    0.5975 C   0  0  0  0  0  0  0  0  0  0  0  0 
    5.0877   -3.1276    2.7998 C   0  0  0  0  0  0  0  0  0  0  0  0 
    6.6933   -5.7892   -0.7536 C   0  0  0  0  0  0  0  0  0  0  0  0 
    6.1872   -0.2404    2.4169 C   0  0  0  0  0  0  0  0  0  0  0  0 
    8.1081   -5.2646    1.2882 C   0  0  0  0  0  0  0  0  0  0  0  0 
    6.1213   -1.3204    1.3232 C   0  0  0  0  0  0  0  0  0  0  0  0 
    6.1776   -3.7121    0.5506 C   0  0  0  0  0  0  0  0  0  0  0  0 
    6.2013   -2.7914    1.7950 C   0  0  2  0  0  0  0  0  0  0  0  0 
    6.6937   -5.1721    0.6647 C   0  0  1  0  0  0  0  0  0  0  0  0 
    5.8025   -5.9362    1.5686 N   0  0  0  0  0  0  0  0  0  0  0  0 
    7.5069    0.5904    3.9426 H   0  0  0  0  0  0  0  0  0  0  0  0 
    8.3632   -0.1569    2.5852 H   0  0  0  0  0  0  0  0  0  0  0  0 
    7.5948   -1.1698    3.8160 H   0  0  0  0  0  0  0  0  0  0  0  0 
   10.1753   -4.6283    1.1050 H   0  0  0  0  0  0  0  0  0  0  0  0 
    9.0183   -3.3873    0.6183 H   0  0  0  0  0  0  0  0  0  0  0  0 
    9.3499   -4.7592   -0.4496 H   0  0  0  0  0  0  0  0  0  0  0  0 
    5.1614   -2.5128    3.7040 H   0  0  0  0  0  0  0  0  0  0  0  0 
    5.1376   -4.1794    3.0894 H   0  0  0  0  0  0  0  0  0  0  0  0 
    4.0995   -2.9412    2.3553 H   0  0  0  0  0  0  0  0  0  0  0  0 
    7.3506   -5.2542   -1.4490 H   0  0  0  0  0  0  0  0  0  0  0  0 
    5.6817   -5.7712   -1.1789 H   0  0  0  0  0  0  0  0  0  0  0  0 
    7.0235   -6.8356   -0.7185 H   0  0  0  0  0  0  0  0  0  0  0  0 
    6.0760    0.7398    1.9334 H   0  0  0  0  0  0  0  0  0  0  0  0 
    5.3285   -0.3376    3.0935 H   0  0  0  0  0  0  0  0  0  0  0  0 
    8.0340   -4.9626    2.3389 H   0  0  0  0  0  0  0  0  0  0  0  0 
    8.3946   -6.3271    1.3021 H   0  0  0  0  0  0  0  0  0  0  0  0 
    6.9376   -1.1370    0.6081 H   0  0  0  0  0  0  0  0  0  0  0  0 
    5.1875   -1.1881    0.7557 H   0  0  0  0  0  0  0  0  0  0  0  0 
    6.7629   -3.2300   -0.2435 H   0  0  0  0  0  0  0  0  0  0  0  0 
    5.1463   -3.7505    0.1639 H   0  0  0  0  0  0  0  0  0  0  0  0 
    7.1664   -2.9286    2.3010 H   0  0  0  0  0  0  0  0  0  0  0  0 
    6.1035   -6.9119    1.5832 H   0  0  0  0  0  0  0  0  0  0  0  0 
    4.8581   -5.9441    1.1805 H   0  0  0  0  0  0  0  0  0  0  0  0 
  1 14  1  0  0  0  0 
  1 12  1  0  0  0  0 
  2 16  1  0  0  0  0 
  2 15  1  0  0  0  0 
  2  6  1  0  0  0  0 
  3 19  1  0  0  0  0 
  3 18  1  0  0  0  0 
  4 23  1  0  0  0  0 
  5 25  1  0  0  0  0 
  5  1  1  0  0  0  0 
  6 27  1  0  0  0  0 
  6 26  1  0  0  0  0 
  7  9  1  0  0  0  0 
  7  5  1  0  0  0  0 
  8 10  1  0  0  0  0 
  8  9  1  0  0  0  0 
  9 32  1  1  0  0  0 
  9  3  1  0  0  0  0 
 10  4  1  6  0  0  0 
 10  6  1  0  0  0  0 
 10 11  1  0  0  0  0 
 11 33  1  0  0  0  0 
 13  1  1  0  0  0  0 
 17  2  1  0  0  0  0 
 20  3  1  0  0  0  0 
 21  4  1  0  0  0  0 
 22  4  1  0  0  0  0 
 24  5  1  0  0  0  0 
 28  7  1  0  0  0  0 
 29  7  1  0  0  0  0 
 30  8  1  0  0  0  0 
 31  8  1  0  0  0  0 
 34 11  1  0  0  0  0 
M  END 
>  <HBA> 
1 
 
>  <HBD> 
1 
 
>  <TPSA> 
26.02 
 
>  <cid> 
41713 
 
>  <dipole> 
1.35 
 
>  <excitation_energy_1> 
5.608 
 
>  <excitation_energy_2> 
6.169 
 
>  <excitation_energy_3> 
6.269 
 
>  <excitation_energy_4> 
6.398 
 
>  <homo_energy> 
-6.21 
 
>  <homo_lumo_gap> 
8.079 
 
>  <logP> 
3.64 
 
>  <lumo_energy> 
1.869 
 
>  <melting_point> 
36.05 
 
>  <molecular_refractivity> 
52.93 
 
>  <oscillator_strength_1> 
0.0377 
 
>  <oscillator_strength_2> 
0.0031 
 
>  <oscillator_strength_3> 
0.0013 
 
>  <oscillator_strength_4> 
0.0022 
 
>  <open_babel_can_smiles> 
CCC[C@H](C[C@@](CC)(N)C)C 
 
>  <mulliken_charges> 
34 
1   -0.444546 
2   -0.458394 
3   -0.466566 
4   -0.452496 
5   -0.253987 
6   -0.248558 
7   -0.254228 
8   -0.267039 
9   -0.067778 
10   0.190666 
11   -0.712178 
12   0.140065 
13   0.138103 
14   0.148489 
15   0.144195 
16   0.151101 
17   0.14415 
18   0.133764 
19   0.185971 
20   0.122207 
21   0.14218 
22   0.132715 
23   0.129949 
24   0.127929 
25   0.136045 
26   0.152117 
27   0.117397 
28   0.120068 
29   0.121439 
30   0.128955 
31   0.114772 
32   0.126509 
33   0.288375 
34   0.288609 
 
>  <lowdin_charges> 
34 
1   -0.448788 
2   -0.446149 
3   -0.457457 
4   -0.459667 
5   -0.276144 
6   -0.275895 
7   -0.277983 
8   -0.279249 
9   -0.124798 
10   0.060436 
11   -0.537675 
12   0.149265 
13   0.144851 
14   0.147991 
15   0.152021 
16   0.147637 
17   0.145864 
18   0.143579 
19   0.167469 
20   0.136985 
21   0.149514 
22   0.143739 
23   0.141514 
24   0.140772 
25   0.141684 
26   0.14947 
27   0.134958 
28   0.135057 
29   0.137145 
30   0.14475 
31   0.135194 
32   0.138001 
33   0.247472 
34   0.248437 
 
$$$$ 
 
