PCCDB-ID:  68412 
public computational chemistry database (PCCDB) project, http://pccdb.org 
 
 13 12  0  0  0  0  0  0  0  0999 V2000 
    0.7865    0.0843   -0.3459 C   0  0  0  0  0  0  0  0  0  0  0  0 
   -0.5994    1.7368    1.0261 C   0  0  0  0  0  0  0  0  0  0  0  0 
    0.3385    0.4991    1.0775 C   0  0  0  0  0  0  0  0  0  0  0  0 
    1.3300    0.8830   -1.0814 O   0  0  0  0  0  0  0  0  0  0  0  0 
    0.5479   -1.1815   -0.6802 O   0  0  0  0  0  0  0  0  0  0  0  0 
   -1.6238    1.7266    1.6717 O   0  0  0  0  0  0  0  0  0  0  0  0 
   -0.1826    2.7568    0.2921 O   0  0  0  0  0  0  0  0  0  0  0  0 
   -0.3447   -0.5701    1.6590 O   0  0  0  0  0  0  0  0  0  0  0  0 
    1.4472    0.9345    1.8258 O   0  0  0  0  0  0  0  0  0  0  0  0 
    0.0407   -1.5777    0.0617 H   0  0  0  0  0  0  0  0  0  0  0  0 
    0.6078    2.4742   -0.2269 H   0  0  0  0  0  0  0  0  0  0  0  0 
   -1.1166   -0.1717    2.1191 H   0  0  0  0  0  0  0  0  0  0  0  0 
    2.0405    0.1757    1.9598 H   0  0  0  0  0  0  0  0  0  0  0  0 
  1  3  1  0  0  0  0 
  2  3  1  0  0  0  0 
  2  6  2  0  0  0  0 
  3  8  1  0  0  0  0 
  3  9  1  0  0  0  0 
  4  1  2  0  0  0  0 
  5  1  1  0  0  0  0 
  5 10  1  0  0  0  0 
  7  2  1  0  0  0  0 
  8 12  1  0  0  0  0 
  9 13  1  0  0  0  0 
 11  7  1  0  0  0  0 
M  END 
>  <HBA> 
6 
 
>  <HBD> 
4 
 
>  <TPSA> 
115.06 
 
>  <cid> 
68412 
 
>  <dipole> 
3.2 
 
>  <excitation_energy_1> 
5.223 
 
>  <excitation_energy_2> 
5.574 
 
>  <excitation_energy_3> 
6.365 
 
>  <excitation_energy_4> 
6.795 
 
>  <homo_energy> 
-8.172 
 
>  <homo_lumo_gap> 
6.7 
 
>  <logP> 
-2.163 
 
>  <lumo_energy> 
-1.472 
 
>  <melting_point> 
178.01 
 
>  <molecular_refractivity> 
22.44 
 
>  <oscillator_strength_1> 
0.0053 
 
>  <oscillator_strength_2> 
0.0024 
 
>  <oscillator_strength_3> 
0.009 
 
>  <oscillator_strength_4> 
0.0011 
 
>  <open_babel_can_smiles> 
OC(=O)C(C(=O)O)(O)O 
 
>  <mulliken_charges> 
13 
1   0.594268 
2   0.626882 
3   0.303054 
4   -0.460974 
5   -0.555187 
6   -0.459176 
7   -0.553941 
8   -0.664891 
9   -0.580888 
10   0.448778 
11   0.452141 
12   0.436774 
13   0.413159 
 
>  <lowdin_charges> 
13 
1   0.167947 
2   0.180901 
3   0.115306 
4   -0.24647 
5   -0.314218 
6   -0.237526 
7   -0.305175 
8   -0.435387 
9   -0.411774 
10   0.377288 
11   0.377536 
12   0.371622 
13   0.35995 
 
$$$$ 
 
