PCCDB-ID:  69130 
public computational chemistry database (PCCDB) project, http://pccdb.org 
 
 23 23  0  0  0  0  0  0  0  0999 V2000 
    1.0604    0.0200   -0.0228 C   0  0  0  0  0  0  0  0  0  0  0  0 
    2.5882   -2.5289    0.0641 C   0  0  0  0  0  0  0  0  0  0  0  0 
    5.2768    2.6566   -0.6455 C   0  0  0  0  0  0  0  0  0  0  0  0 
    3.2585    1.2080   -0.3314 C   0  0  0  0  0  0  0  0  0  0  0  0 
    4.6695   -1.1478   -0.2472 C   0  0  0  0  0  0  0  0  0  0  0  0 
    2.5626    0.0092   -0.1604 C   0  0  0  0  0  0  0  0  0  0  0  0 
    3.2859   -1.2028   -0.1177 C   0  0  0  0  0  0  0  0  0  0  0  0 
    4.6511    1.2940   -0.4709 C   0  0  0  0  0  0  0  0  0  0  0  0 
    5.3385    0.0674   -0.4211 C   0  0  0  0  0  0  0  0  0  0  0  0 
    6.8021   -0.0125   -0.5510 N   0  0  0  0  0  0  0  0  0  0  0  0 
    7.3386   -1.1075   -0.3704 O   0  0  0  0  0  0  0  0  0  0  0  0 
    7.4243    1.0130   -0.8366 O   0  0  0  0  0  0  0  0  0  0  0  0 
    0.6637    1.0376   -0.0763 H   0  0  0  0  0  0  0  0  0  0  0  0 
    0.7416   -0.4166    0.9323 H   0  0  0  0  0  0  0  0  0  0  0  0 
    0.5808   -0.5709   -0.8136 H   0  0  0  0  0  0  0  0  0  0  0  0 
    3.3069   -3.3531    0.0739 H   0  0  0  0  0  0  0  0  0  0  0  0 
    1.8686   -2.7214   -0.7420 H   0  0  0  0  0  0  0  0  0  0  0  0 
    2.0253   -2.5643    1.0057 H   0  0  0  0  0  0  0  0  0  0  0  0 
    4.5022    3.4268   -0.5779 H   0  0  0  0  0  0  0  0  0  0  0  0 
    5.7803    2.7478   -1.6122 H   0  0  0  0  0  0  0  0  0  0  0  0 
    6.0395    2.8551    0.1127 H   0  0  0  0  0  0  0  0  0  0  0  0 
    2.6906    2.1349   -0.3569 H   0  0  0  0  0  0  0  0  0  0  0  0 
    5.2623   -2.0536   -0.2139 H   0  0  0  0  0  0  0  0  0  0  0  0 
  1 14  1  0  0  0  0 
  2 16  1  0  0  0  0 
  2 18  1  0  0  0  0 
  3 19  1  0  0  0  0 
  3  8  1  0  0  0  0 
  3 21  1  0  0  0  0 
  4  6  2  0  0  0  0 
  5 23  1  0  0  0  0 
  5  7  2  0  0  0  0 
  6  7  1  0  0  0  0 
  6  1  1  0  0  0  0 
  7  2  1  0  0  0  0 
  8  9  2  0  0  0  0 
  8  4  1  0  0  0  0 
  9  5  1  0  0  0  0 
 10  9  1  0  0  0  0 
 10 11  2  0  0  0  0 
 12 10  2  0  0  0  0 
 13  1  1  0  0  0  0 
 15  1  1  0  0  0  0 
 17  2  1  0  0  0  0 
 20  3  1  0  0  0  0 
 22  4  1  0  0  0  0 
M  END 
>  <HBA> 
0 
 
>  <HBD> 
0 
 
>  <TPSA> 
45.82 
 
>  <cid> 
69130 
 
>  <dipole> 
5.15 
 
>  <excitation_energy_1> 
3.708 
 
>  <excitation_energy_2> 
3.941 
 
>  <excitation_energy_3> 
4.286 
 
>  <excitation_energy_4> 
4.455 
 
>  <homo_energy> 
-6.887 
 
>  <homo_lumo_gap> 
4.735 
 
>  <logP> 
3.043 
 
>  <lumo_energy> 
-2.152 
 
>  <melting_point> 
56.63 
 
>  <molecular_refractivity> 
50.16 
 
>  <oscillator_strength_1> 
0.0021 
 
>  <oscillator_strength_2> 
0.0397 
 
>  <oscillator_strength_3> 
0.003 
 
>  <oscillator_strength_4> 
0.2251 
 
>  <open_babel_can_smiles> 
Cc1cc(N(=O)=O)c(cc1C)C 
 
>  <mulliken_charges> 
23 
1   -0.538033 
2   -0.535392 
3   -0.502468 
4   -0.269125 
5   -0.221117 
6   0.165705 
7   0.127251 
8   0.176005 
9   0.21771 
10   0.371619 
11   -0.400803 
12   -0.407088 
13   0.163528 
14   0.16912 
15   0.169105 
16   0.16725 
17   0.164947 
18   0.165047 
19   0.145542 
20   0.184329 
21   0.180603 
22   0.129851 
23   0.176411 
 
>  <lowdin_charges> 
23 
1   -0.441762 
2   -0.441492 
3   -0.439193 
4   -0.174173 
5   -0.150372 
6   0.016103 
7   -0.007907 
8   0.021764 
9   -0.011175 
10   0.308139 
11   -0.256268 
12   -0.248944 
13   0.16094 
14   0.164851 
15   0.165942 
16   0.164216 
17   0.162501 
18   0.161909 
19   0.152089 
20   0.174922 
21   0.174141 
22   0.159093 
23   0.184679 
 
$$$$ 
 
