PCCDB-ID:  6966 
public computational chemistry database (PCCDB) project, http://pccdb.org 
 
 18 20  0  0  0  0  0  0  0  0999 V2000 
   -0.0002    1.4442    0.0012 C   0  0  0  0  0  0  0  0  0  0  0  0 
    0.0001   -1.4627   -0.0001 C   0  0  0  0  0  0  0  0  0  0  0  0 
    1.1703    0.6899    0.0028 C   0  0  0  0  0  0  0  0  0  0  0  0 
   -1.1705    0.6897   -0.0009 C   0  0  0  0  0  0  0  0  0  0  0  0 
    1.1704   -0.7081    0.0020 C   0  0  0  0  0  0  0  0  0  0  0  0 
   -1.1704   -0.7083   -0.0016 C   0  0  0  0  0  0  0  0  0  0  0  0 
    2.5895    1.1394    0.0027 C   0  0  0  0  0  0  0  0  0  0  0  0 
   -2.5898    1.1390   -0.0006 C   0  0  0  0  0  0  0  0  0  0  0  0 
    2.5897   -1.1574    0.0016 C   0  0  0  0  0  0  0  0  0  0  0  0 
   -2.5896   -1.1579   -0.0012 C   0  0  0  0  0  0  0  0  0  0  0  0 
    3.0467    2.2450    0.0032 O   0  0  0  0  0  0  0  0  0  0  0  0 
   -3.0471    2.2445   -0.0008 O   0  0  0  0  0  0  0  0  0  0  0  0 
    3.0470   -2.2630    0.0011 O   0  0  0  0  0  0  0  0  0  0  0  0 
   -3.0468   -2.2635   -0.0016 O   0  0  0  0  0  0  0  0  0  0  0  0 
    3.3855   -0.0090    0.0019 O   0  0  0  0  0  0  0  0  0  0  0  0 
   -3.3856   -0.0095   -0.0001 O   0  0  0  0  0  0  0  0  0  0  0  0 
   -0.0003    2.5292    0.0012 H   0  0  0  0  0  0  0  0  0  0  0  0 
    0.0002   -2.5477   -0.0002 H   0  0  0  0  0  0  0  0  0  0  0  0 
  1  3  2  0  0  0  0 
  2  5  2  0  0  0  0 
  4  8  1  0  0  0  0 
  4  1  1  0  0  0  0 
  5  3  1  0  0  0  0 
  6 10  1  0  0  0  0 
  6  4  2  0  0  0  0 
  6  2  1  0  0  0  0 
  7  3  1  0  0  0  0 
  7 11  2  0  0  0  0 
  8 16  1  0  0  0  0 
  9 15  1  0  0  0  0 
  9  5  1  0  0  0  0 
 10 16  1  0  0  0  0 
 12  8  2  0  0  0  0 
 13  9  2  0  0  0  0 
 14 10  2  0  0  0  0 
 15  7  1  0  0  0  0 
 17  1  1  0  0  0  0 
 18  2  1  0  0  0  0 
M  END 
>  <HBA> 
6 
 
>  <HBD> 
0 
 
>  <TPSA> 
94.56 
 
>  <cid> 
6966 
 
>  <dipole> 
0.0 
 
>  <excitation_energy_1> 
3.64 
 
>  <excitation_energy_2> 
3.75 
 
>  <excitation_energy_3> 
4.204 
 
>  <excitation_energy_4> 
4.308 
 
>  <homo_energy> 
-8.588 
 
>  <homo_lumo_gap> 
4.65 
 
>  <logP> 
-0.505 
 
>  <lumo_energy> 
-3.938 
 
>  <melting_point> 
231.68 
 
>  <molecular_refractivity> 
53.44 
 
>  <oscillator_strength_1> 
0.0002 
 
>  <oscillator_strength_2> 
0.0 
 
>  <oscillator_strength_3> 
0.0 
 
>  <oscillator_strength_4> 
0.0 
 
>  <open_babel_can_smiles> 
O=c1oc(=O)c2c1cc1c(=O)oc(=O)c1c2 
 
>  <mulliken_charges> 
18 
1   -0.202907 
2   -0.20314 
3   0.033433 
4   0.033423 
5   0.033452 
6   0.033472 
7   0.602842 
8   0.602839 
9   0.602892 
10   0.60289 
11   -0.403674 
12   -0.403675 
13   -0.403671 
14   -0.403672 
15   -0.474348 
16   -0.474346 
17   0.212094 
18   0.212095 
 
>  <lowdin_charges> 
18 
1   -0.08836 
2   -0.088366 
3   -0.025287 
4   -0.025288 
5   -0.025287 
6   -0.025286 
7   0.212008 
8   0.212012 
9   0.212012 
10   0.212009 
11   -0.167727 
12   -0.167728 
13   -0.167728 
14   -0.167727 
15   -0.150678 
16   -0.150678 
17   0.201049 
18   0.20105 
 
$$$$ 
 
