PCCDB-ID:  12228 
public computational chemistry database (PCCDB) project, http://pccdb.org 
 
  7  6  0  0  0  0  0  0  0  0999 V2000 
    0.9774    0.0833    0.0457 C   0  0  0  0  0  0  0  0  0  0  0  0 
    3.1347   -0.7963    0.9118 C   0  0  0  0  0  0  0  0  0  0  0  0 
    2.3880   -0.1207    0.2499 N   0  0  0  0  0  0  0  0  0  0  0  0 
    3.9763   -1.3885    1.4925 O   0  0  0  0  0  0  0  0  0  0  0  0 
    0.8371    0.8514   -0.7184 H   0  0  0  0  0  0  0  0  0  0  0  0 
    0.4892    0.4203    0.9674 H   0  0  0  0  0  0  0  0  0  0  0  0 
    0.4898   -0.8368   -0.2961 H   0  0  0  0  0  0  0  0  0  0  0  0 
  1  3  1  0  0  0  0 
  1  6  1  0  0  0  0 
  2  4  2  0  0  0  0 
  3  2  2  0  0  0  0 
  5  1  1  0  0  0  0 
  7  1  1  0  0  0  0 
M  END 
>  <HBA> 
2 
 
>  <HBD> 
0 
 
>  <TPSA> 
29.43 
 
>  <cid> 
12228 
 
>  <dipole> 
2.93 
 
>  <excitation_energy_1> 
6.033 
 
>  <excitation_energy_2> 
6.738 
 
>  <excitation_energy_3> 
7.158 
 
>  <excitation_energy_4> 
7.545 
 
>  <homo_energy> 
-7.557 
 
>  <homo_lumo_gap> 
8.215 
 
>  <logP> 
-0.048 
 
>  <lumo_energy> 
0.659 
 
>  <melting_point> 
26.87 
 
>  <molecular_refractivity> 
13.99 
 
>  <oscillator_strength_1> 
0.0 
 
>  <oscillator_strength_2> 
0.0113 
 
>  <oscillator_strength_3> 
0.0 
 
>  <oscillator_strength_4> 
0.0059 
 
>  <open_babel_can_smiles> 
CN=C=O 
 
>  <mulliken_charges> 
7 
1   -0.311777 
2   0.613182 
3   -0.422544 
4   -0.413497 
5   0.182185 
6   0.17628 
7   0.176171 
 
>  <lowdin_charges> 
7 
1   -0.321563 
2   0.179095 
3   -0.184566 
4   -0.166601 
5   0.168011 
6   0.162845 
7   0.16278 
 
$$$$ 
 
