PCCDB-ID:  69843 
public computational chemistry database (PCCDB) project, http://pccdb.org 
 
 26 26  0  0  0  0  0  0  0  0999 V2000 
    1.9806   -1.1093   -1.0471 C   0  0  0  0  0  0  0  0  0  0  0  0 
    2.9770   -0.5267   -0.0393 C   0  0  0  0  0  0  0  0  0  0  0  0 
    2.7976    0.9811    0.1793 C   0  0  0  0  0  0  0  0  0  0  0  0 
    5.6709    3.8161    2.3258 C   0  0  0  0  0  0  0  0  0  0  0  0 
    5.6358    4.1217    0.8040 C   0  0  0  0  0  0  0  0  0  0  0  0 
    3.7906    1.5608    1.1925 C   0  0  0  0  0  0  0  0  0  0  0  0 
    4.1917    3.4907    2.6665 C   0  0  0  0  0  0  0  0  0  0  0  0 
    4.1540    3.8591    0.3978 C   0  0  0  0  0  0  0  0  0  0  0  0 
    3.5653    2.9935    1.4333 N   0  0  0  0  0  0  0  0  0  0  0  0 
    2.1298   -2.1869   -1.1811 H   0  0  0  0  0  0  0  0  0  0  0  0 
    2.0868   -0.6334   -2.0298 H   0  0  0  0  0  0  0  0  0  0  0  0 
    0.9466   -0.9541   -0.7157 H   0  0  0  0  0  0  0  0  0  0  0  0 
    4.0024   -0.7285   -0.3808 H   0  0  0  0  0  0  0  0  0  0  0  0 
    2.8691   -1.0486    0.9225 H   0  0  0  0  0  0  0  0  0  0  0  0 
    1.7809    1.1937    0.5346 H   0  0  0  0  0  0  0  0  0  0  0  0 
    2.9008    1.4986   -0.7848 H   0  0  0  0  0  0  0  0  0  0  0  0 
    6.0531    4.6546    2.9174 H   0  0  0  0  0  0  0  0  0  0  0  0 
    6.3140    2.9544    2.5353 H   0  0  0  0  0  0  0  0  0  0  0  0 
    6.3191    3.4650    0.2556 H   0  0  0  0  0  0  0  0  0  0  0  0 
    5.9328    5.1510    0.5776 H   0  0  0  0  0  0  0  0  0  0  0  0 
    4.8243    1.3349    0.8645 H   0  0  0  0  0  0  0  0  0  0  0  0 
    3.6519    1.0423    2.1494 H   0  0  0  0  0  0  0  0  0  0  0  0 
    3.6705    4.4102    2.9665 H   0  0  0  0  0  0  0  0  0  0  0  0 
    4.0759    2.7672    3.4792 H   0  0  0  0  0  0  0  0  0  0  0  0 
    4.0508    3.4088   -0.5932 H   0  0  0  0  0  0  0  0  0  0  0  0 
    3.5982    4.8057    0.3840 H   0  0  0  0  0  0  0  0  0  0  0  0 
  1 12  1  0  0  0  0 
  1  2  1  0  0  0  0 
  2  3  1  0  0  0  0 
  2 14  1  0  0  0  0 
  3 15  1  0  0  0  0 
  3  6  1  0  0  0  0 
  4 18  1  0  0  0  0 
  4  7  1  0  0  0  0 
  4 17  1  0  0  0  0 
  5  4  1  0  0  0  0 
  6  9  1  0  0  0  0 
  6 22  1  0  0  0  0 
  7 23  1  0  0  0  0 
  7 24  1  0  0  0  0 
  8  5  1  0  0  0  0 
  8  9  1  0  0  0  0 
  9  7  1  0  0  0  0 
 10  1  1  0  0  0  0 
 11  1  1  0  0  0  0 
 13  2  1  0  0  0  0 
 16  3  1  0  0  0  0 
 19  5  1  0  0  0  0 
 20  5  1  0  0  0  0 
 21  6  1  0  0  0  0 
 25  8  1  0  0  0  0 
 26  8  1  0  0  0  0 
M  END 
>  <HBA> 
1 
 
>  <HBD> 
0 
 
>  <TPSA> 
3.24 
 
>  <cid> 
69843 
 
>  <dipole> 
0.87 
 
>  <excitation_energy_1> 
5.156 
 
>  <excitation_energy_2> 
5.56 
 
>  <excitation_energy_3> 
5.615 
 
>  <excitation_energy_4> 
5.784 
 
>  <homo_energy> 
-5.559 
 
>  <homo_lumo_gap> 
7.608 
 
>  <logP> 
1.82 
 
>  <lumo_energy> 
2.049 
 
>  <melting_point> 
-2.68 
 
>  <molecular_refractivity> 
45.27 
 
>  <oscillator_strength_1> 
0.029 
 
>  <oscillator_strength_2> 
0.0026 
 
>  <oscillator_strength_3> 
0.0013 
 
>  <oscillator_strength_4> 
0.0013 
 
>  <open_babel_can_smiles> 
CCCCN1CCCC1 
 
>  <mulliken_charges> 
26 
1   -0.44011 
2   -0.252083 
3   -0.245758 
4   -0.283095 
5   -0.28477 
6   -0.122565 
7   -0.144185 
8   -0.150728 
9   -0.378285 
10   0.140743 
11   0.141031 
12   0.143147 
13   0.129305 
14   0.129785 
15   0.140788 
16   0.128532 
17   0.136296 
18   0.13943 
19   0.139746 
20   0.137145 
21   0.109132 
22   0.130384 
23   0.139123 
24   0.135881 
25   0.139544 
26   0.141568 
 
>  <lowdin_charges> 
26 
1   -0.440022 
2   -0.271866 
3   -0.278777 
4   -0.30423 
5   -0.303987 
6   -0.200269 
7   -0.209694 
8   -0.211227 
9   -0.190463 
10   0.146905 
11   0.145551 
12   0.146111 
13   0.136936 
14   0.138101 
15   0.145041 
16   0.137418 
17   0.147634 
18   0.14474 
19   0.146274 
20   0.146143 
21   0.115177 
22   0.141069 
23   0.140415 
24   0.145421 
25   0.145837 
26   0.141764 
 
$$$$ 
 
