PCCDB-ID:  34728 
public computational chemistry database (PCCDB) project, http://pccdb.org 
 
 32 32  0  0  1  0  0  0  0  0999 V2000 
    1.2004    0.0131   -0.9943 C   0  0  0  0  0  0  0  0  0  0  0  0 
    8.3165   -0.0605   -0.8365 C   0  0  0  0  0  0  0  0  0  0  0  0 
    6.4002    0.2360   -3.3041 C   0  0  0  0  0  0  0  0  0  0  0  0 
    2.6462    0.2637   -0.5555 C   0  0  0  0  0  0  0  0  0  0  0  0 
    7.8715    1.2533   -1.4866 C   0  0  0  0  0  0  0  0  0  0  0  0 
    3.2116    1.5890   -1.0799 C   0  0  0  0  0  0  0  0  0  0  0  0 
    5.9911    2.6315   -2.5041 C   0  0  0  0  0  0  0  0  0  0  0  0 
    5.2904    3.1274   -1.2304 C   0  0  2  0  0  0  0  0  0  0  0  0 
    4.6674    1.8235   -0.6611 C   0  0  2  0  0  0  0  0  0  0  0  0 
    6.4647    1.2155   -2.1300 C   0  0  1  0  0  0  0  0  0  0  0  0 
    4.3921    4.2084   -1.4135 O   0  0  0  0  0  0  0  0  0  0  0  0 
    5.5064    0.7612   -1.1351 O   0  0  0  0  0  0  0  0  0  0  0  0 
    0.8239   -0.9377   -0.6001 H   0  0  0  0  0  0  0  0  0  0  0  0 
    1.1180   -0.0259   -2.0878 H   0  0  0  0  0  0  0  0  0  0  0  0 
    0.5315    0.8079   -0.6411 H   0  0  0  0  0  0  0  0  0  0  0  0 
    9.2689    0.0739   -0.3116 H   0  0  0  0  0  0  0  0  0  0  0  0 
    8.4594   -0.8572   -1.5747 H   0  0  0  0  0  0  0  0  0  0  0  0 
    7.5699   -0.3999   -0.1125 H   0  0  0  0  0  0  0  0  0  0  0  0 
    7.1158    0.5154   -4.0865 H   0  0  0  0  0  0  0  0  0  0  0  0 
    5.3951    0.2325   -3.7382 H   0  0  0  0  0  0  0  0  0  0  0  0 
    6.6276   -0.7832   -2.9781 H   0  0  0  0  0  0  0  0  0  0  0  0 
    3.2911   -0.5531   -0.8992 H   0  0  0  0  0  0  0  0  0  0  0  0 
    2.7030    0.2608    0.5424 H   0  0  0  0  0  0  0  0  0  0  0  0 
    8.5954    1.5572   -2.2557 H   0  0  0  0  0  0  0  0  0  0  0  0 
    7.8815    2.0454   -0.7261 H   0  0  0  0  0  0  0  0  0  0  0  0 
    2.6054    2.4254   -0.7049 H   0  0  0  0  0  0  0  0  0  0  0  0 
    3.1368    1.6015   -2.1788 H   0  0  0  0  0  0  0  0  0  0  0  0 
    6.8068    3.2886   -2.8201 H   0  0  0  0  0  0  0  0  0  0  0  0 
    5.2617    2.5877   -3.3250 H   0  0  0  0  0  0  0  0  0  0  0  0 
    6.0311    3.5097   -0.5218 H   0  0  0  0  0  0  0  0  0  0  0  0 
    4.7156    1.8204    0.4369 H   0  0  0  0  0  0  0  0  0  0  0  0 
    3.7453    3.9427   -2.0861 H   0  0  0  0  0  0  0  0  0  0  0  0 
  1 15  1  0  0  0  0 
  1 13  1  0  0  0  0 
  1  4  1  0  0  0  0 
  2 16  1  0  0  0  0 
  2 18  1  0  0  0  0 
  3 21  1  0  0  0  0 
  4 23  1  0  0  0  0 
  5  2  1  0  0  0  0 
  5 25  1  0  0  0  0 
  6 26  1  0  0  0  0 
  6  9  1  0  0  0  0 
  6  4  1  0  0  0  0 
  7 10  1  0  0  0  0 
  7  8  1  0  0  0  0 
  8  9  1  0  0  0  0 
  8 30  1  1  0  0  0 
  9 31  1  1  0  0  0 
 10  3  1  6  0  0  0 
 10  5  1  0  0  0  0 
 10 12  1  0  0  0  0 
 11  8  1  0  0  0  0 
 12  9  1  0  0  0  0 
 14  1  1  0  0  0  0 
 17  2  1  0  0  0  0 
 19  3  1  0  0  0  0 
 20  3  1  0  0  0  0 
 22  4  1  0  0  0  0 
 24  5  1  0  0  0  0 
 27  6  1  0  0  0  0 
 28  7  1  0  0  0  0 
 29  7  1  0  0  0  0 
 32 11  1  0  0  0  0 
M  END 
>  <HBA> 
2 
 
>  <HBD> 
1 
 
>  <TPSA> 
29.46 
 
>  <cid> 
34728 
 
>  <dipole> 
1.22 
 
>  <excitation_energy_1> 
6.139 
 
>  <excitation_energy_2> 
6.255 
 
>  <excitation_energy_3> 
6.434 
 
>  <excitation_energy_4> 
6.521 
 
>  <homo_energy> 
-6.599 
 
>  <homo_lumo_gap> 
8.471 
 
>  <logP> 
2.105 
 
>  <lumo_energy> 
1.872 
 
>  <melting_point> 
14.05 
 
>  <molecular_refractivity> 
50.35 
 
>  <oscillator_strength_1> 
0.02 
 
>  <oscillator_strength_2> 
0.0058 
 
>  <oscillator_strength_3> 
0.0062 
 
>  <oscillator_strength_4> 
0.0197 
 
>  <open_babel_can_smiles> 
CCC[C@H]1O[C@](C[C@H]1O)(C)CC 
 
>  <mulliken_charges> 
32 
1   -0.443381 
2   -0.451679 
3   -0.460819 
4   -0.250267 
5   -0.26348 
6   -0.283571 
7   -0.335463 
8   0.103977 
9   0.146519 
10   0.34677 
11   -0.625327 
12   -0.534632 
13   0.143809 
14   0.138883 
15   0.139691 
16   0.13944 
17   0.142061 
18   0.166386 
19   0.138621 
20   0.143081 
21   0.158879 
22   0.155957 
23   0.130489 
24   0.12761 
25   0.131723 
26   0.137236 
27   0.115604 
28   0.152967 
29   0.127254 
30   0.14522 
31   0.125498 
32   0.390943 
 
>  <lowdin_charges> 
32 
1   -0.443686 
2   -0.450168 
3   -0.448506 
4   -0.270793 
5   -0.28533 
6   -0.294597 
7   -0.307062 
8   -0.020688 
9   -0.013252 
10   0.128763 
11   -0.448359 
12   -0.282359 
13   0.150398 
14   0.142897 
15   0.145903 
16   0.149488 
17   0.146992 
18   0.160302 
19   0.151078 
20   0.150639 
21   0.157679 
22   0.152668 
23   0.137869 
24   0.142532 
25   0.142467 
26   0.146714 
27   0.129632 
28   0.158992 
29   0.143136 
30   0.149685 
31   0.135094 
32   0.341872 
 
$$$$ 
 
