PCCDB-ID:  40230 
public computational chemistry database (PCCDB) project, http://pccdb.org 
 
 28 29  0  0  0  0  0  0  0  0999 V2000 
    0.7039   -1.9900    0.4829 C   0  0  0  0  0  0  0  0  0  0  0  0 
    3.6341    1.5393   -3.0341 C   0  0  0  0  0  0  0  0  0  0  0  0 
    4.4189   -4.8183    0.4011 C   0  0  0  0  0  0  0  0  0  0  0  0 
    5.6043   -4.1626   -0.0102 C   0  0  0  0  0  0  0  0  0  0  0  0 
    3.2183   -4.1351    0.4850 C   0  0  0  0  0  0  0  0  0  0  0  0 
    5.6105   -2.8166   -0.3402 C   0  0  0  0  0  0  0  0  0  0  0  0 
    2.9982    1.9371   -0.7831 C   0  0  0  0  0  0  0  0  0  0  0  0 
    2.1436   -1.7834    0.1223 C   0  0  0  0  0  0  0  0  0  0  0  0 
    3.1851   -2.7637    0.1543 C   0  0  0  0  0  0  0  0  0  0  0  0 
    4.3942   -2.1219   -0.2504 C   0  0  0  0  0  0  0  0  0  0  0  0 
    2.1186    0.7185   -0.4386 C   0  0  0  0  0  0  0  0  0  0  0  0 
    2.7399   -0.5931   -0.2907 C   0  0  0  0  0  0  0  0  0  0  0  0 
    4.1018   -0.8117   -0.5033 N   0  0  0  0  0  0  0  0  0  0  0  0 
    0.9218    0.9014   -0.2312 O   0  0  0  0  0  0  0  0  0  0  0  0 
    4.0700    1.7003   -1.6892 O   0  0  0  0  0  0  0  0  0  0  0  0 
    0.5040   -3.0442    0.6990 H   0  0  0  0  0  0  0  0  0  0  0  0 
    0.0375   -1.6677   -0.3233 H   0  0  0  0  0  0  0  0  0  0  0  0 
    0.4242   -1.4004    1.3635 H   0  0  0  0  0  0  0  0  0  0  0  0 
    4.5304    1.3984   -3.6427 H   0  0  0  0  0  0  0  0  0  0  0  0 
    3.0980    2.4340   -3.3810 H   0  0  0  0  0  0  0  0  0  0  0  0 
    2.9772    0.6660   -3.1504 H   0  0  0  0  0  0  0  0  0  0  0  0 
    4.4585   -5.8741    0.6536 H   0  0  0  0  0  0  0  0  0  0  0  0 
    6.5307   -4.7278   -0.0667 H   0  0  0  0  0  0  0  0  0  0  0  0 
    2.3129   -4.6468    0.7999 H   0  0  0  0  0  0  0  0  0  0  0  0 
    6.5234   -2.3170   -0.6528 H   0  0  0  0  0  0  0  0  0  0  0  0 
    3.4655    2.2934    0.1436 H   0  0  0  0  0  0  0  0  0  0  0  0 
    2.3285    2.7256   -1.1519 H   0  0  0  0  0  0  0  0  0  0  0  0 
    4.7077   -0.1030   -0.8969 H   0  0  0  0  0  0  0  0  0  0  0  0 
  1 16  1  0  0  0  0 
  1 18  1  0  0  0  0 
  2 15  1  0  0  0  0 
  3  5  1  0  0  0  0 
  3 22  1  0  0  0  0 
  4  3  2  0  0  0  0 
  5 24  1  0  0  0  0 
  6 10  2  0  0  0  0 
  6  4  1  0  0  0  0 
  7 11  1  0  0  0  0 
  7 26  1  0  0  0  0 
  8  9  1  0  0  0  0 
  8  1  1  0  0  0  0 
  9  5  2  0  0  0  0 
 10  9  1  0  0  0  0 
 11 12  1  0  0  0  0 
 11 14  2  0  0  0  0 
 12  8  2  0  0  0  0 
 13 12  1  0  0  0  0 
 13 10  1  0  0  0  0 
 15  7  1  0  0  0  0 
 17  1  1  0  0  0  0 
 19  2  1  0  0  0  0 
 20  2  1  0  0  0  0 
 21  2  1  0  0  0  0 
 23  4  1  0  0  0  0 
 25  6  1  0  0  0  0 
 27  7  1  0  0  0  0 
 28 13  1  0  0  0  0 
M  END 
>  <HBA> 
2 
 
>  <HBD> 
1 
 
>  <TPSA> 
42.09 
 
>  <cid> 
40230 
 
>  <dipole> 
2.55 
 
>  <excitation_energy_1> 
3.591 
 
>  <excitation_energy_2> 
3.622 
 
>  <excitation_energy_3> 
4.175 
 
>  <excitation_energy_4> 
4.999 
 
>  <homo_energy> 
-5.573 
 
>  <homo_lumo_gap> 
4.035 
 
>  <logP> 
2.305 
 
>  <lumo_energy> 
-1.537 
 
>  <melting_point> 
126.05 
 
>  <molecular_refractivity> 
59.35 
 
>  <oscillator_strength_1> 
0.08 
 
>  <oscillator_strength_2> 
0.0008 
 
>  <oscillator_strength_3> 
0.3853 
 
>  <oscillator_strength_4> 
0.0445 
 
>  <open_babel_can_smiles> 
COCC(=O)c1[nH]c2c(c1C)cccc2 
 
>  <mulliken_charges> 
28 
1   -0.508787 
2   -0.214594 
3   -0.142667 
4   -0.144712 
5   -0.197748 
6   -0.168231 
7   -0.123621 
8   0.067793 
9   0.058947 
10   0.350544 
11   0.365185 
12   0.229364 
13   -0.787932 
14   -0.482288 
15   -0.47157 
16   0.144771 
17   0.176172 
18   0.173913 
19   0.165757 
20   0.150889 
21   0.154565 
22   0.125347 
23   0.128322 
24   0.132311 
25   0.128327 
26   0.17685 
27   0.162364 
28   0.350729 
 
>  <lowdin_charges> 
28 
1   -0.435334 
2   -0.285195 
3   -0.174064 
4   -0.152702 
5   -0.152866 
6   -0.188119 
7   -0.165869 
8   -0.007562 
9   -0.041053 
10   0.044966 
11   0.120088 
12   -0.030261 
13   -0.205705 
14   -0.255407 
15   -0.275036 
16   0.150723 
17   0.172268 
18   0.170616 
19   0.160215 
20   0.145224 
21   0.14458 
22   0.155362 
23   0.158493 
24   0.159553 
25   0.159428 
26   0.169797 
27   0.157519 
28   0.300343 
 
$$$$ 
 
