PCCDB-ID:  72792 
public computational chemistry database (PCCDB) project, http://pccdb.org 
 
 28 30  0  0  0  0  0  0  0  0999 V2000 
    0.8819    0.1277   -0.0704 C   0  0  0  0  0  0  0  0  0  0  0  0 
    4.5096   -6.2458   -0.0681 C   0  0  0  0  0  0  0  0  0  0  0  0 
    2.3793   -2.4553   -0.0709 C   0  0  0  0  0  0  0  0  0  0  0  0 
    3.0536   -3.6398   -0.0698 C   0  0  0  0  0  0  0  0  0  0  0  0 
    3.1598    1.1975   -0.0670 C   0  0  0  0  0  0  0  0  0  0  0  0 
    6.5928   -4.8336   -0.0650 C   0  0  0  0  0  0  0  0  0  0  0  0 
    4.5643    1.0936   -0.0655 C   0  0  0  0  0  0  0  0  0  0  0  0 
    7.2206   -3.5729   -0.0619 C   0  0  0  0  0  0  0  0  0  0  0  0 
    2.3887    0.0499   -0.0686 C   0  0  0  0  0  0  0  0  0  0  0  0 
    5.2125   -4.9107   -0.0667 C   0  0  0  0  0  0  0  0  0  0  0  0 
    3.0727   -1.2010   -0.0686 C   0  0  0  0  0  0  0  0  0  0  0  0 
    4.4861   -3.6838   -0.0667 C   0  0  0  0  0  0  0  0  0  0  0  0 
    4.4980   -1.1935   -0.0659 C   0  0  0  0  0  0  0  0  0  0  0  0 
    5.2202   -2.4622   -0.0646 C   0  0  0  0  0  0  0  0  0  0  0  0 
    5.2240   -0.0503   -0.0648 N   0  0  0  0  0  0  0  0  0  0  0  0 
    6.5738   -2.4216   -0.0614 N   0  0  0  0  0  0  0  0  0  0  0  0 
    0.5475    1.1690   -0.0686 H   0  0  0  0  0  0  0  0  0  0  0  0 
    0.4509   -0.3644    0.8102 H   0  0  0  0  0  0  0  0  0  0  0  0 
    0.4532   -0.3607   -0.9541 H   0  0  0  0  0  0  0  0  0  0  0  0 
    5.2337   -7.0654   -0.0620 H   0  0  0  0  0  0  0  0  0  0  0  0 
    3.8738   -6.3666   -0.9539 H   0  0  0  0  0  0  0  0  0  0  0  0 
    3.8633   -6.3628    0.8104 H   0  0  0  0  0  0  0  0  0  0  0  0 
    1.2939   -2.4591   -0.0740 H   0  0  0  0  0  0  0  0  0  0  0  0 
    2.4961   -4.5710   -0.0714 H   0  0  0  0  0  0  0  0  0  0  0  0 
    2.6906    2.1779   -0.0667 H   0  0  0  0  0  0  0  0  0  0  0  0 
    7.1962   -5.7377   -0.0660 H   0  0  0  0  0  0  0  0  0  0  0  0 
    5.1713    1.9990   -0.0649 H   0  0  0  0  0  0  0  0  0  0  0  0 
    8.3090   -3.5132   -0.0589 H   0  0  0  0  0  0  0  0  0  0  0  0 
  1 17  1  0  0  0  0 
  1  9  1  0  0  0  0 
  1 18  1  0  0  0  0 
  2 10  1  0  0  0  0 
  2 20  1  0  0  0  0 
  2 22  1  0  0  0  0 
  3  4  2  0  0  0  0 
  3 11  1  0  0  0  0 
  4 12  1  0  0  0  0 
  5 25  1  0  0  0  0 
  5  7  2  0  0  0  0 
  6  8  2  0  0  0  0 
  7 27  1  0  0  0  0 
  7 15  1  0  0  0  0 
  8 16  1  0  0  0  0 
  8 28  1  0  0  0  0 
  9  5  1  0  0  0  0 
 10 12  2  0  0  0  0 
 10  6  1  0  0  0  0 
 11  9  2  0  0  0  0 
 11 13  1  0  0  0  0 
 12 14  1  0  0  0  0 
 13 15  2  0  0  0  0 
 13 14  1  0  0  0  0 
 14 16  2  0  0  0  0 
 19  1  1  0  0  0  0 
 21  2  1  0  0  0  0 
 23  3  1  0  0  0  0 
 24  4  1  0  0  0  0 
 26  6  1  0  0  0  0 
M  END 
>  <HBA> 
2 
 
>  <HBD> 
0 
 
>  <TPSA> 
25.78 
 
>  <cid> 
72792 
 
>  <dipole> 
3.91 
 
>  <excitation_energy_1> 
3.91 
 
>  <excitation_energy_2> 
4.034 
 
>  <excitation_energy_3> 
4.035 
 
>  <excitation_energy_4> 
4.163 
 
>  <homo_energy> 
-6.068 
 
>  <homo_lumo_gap> 
4.68 
 
>  <logP> 
3.4 
 
>  <lumo_energy> 
-1.388 
 
>  <melting_point> 
133.68 
 
>  <molecular_refractivity> 
66.98 
 
>  <oscillator_strength_1> 
0.0012 
 
>  <oscillator_strength_2> 
0.0 
 
>  <oscillator_strength_3> 
0.0 
 
>  <oscillator_strength_4> 
0.1402 
 
>  <open_babel_can_smiles> 
Cc1ccnc2c1ccc1c2nccc1C 
 
>  <mulliken_charges> 
28 
1   -0.535102 
2   -0.535051 
3   -0.198501 
4   -0.198625 
5   -0.20874 
6   -0.208688 
7   0.045133 
8   0.045126 
9   0.153706 
10   0.153745 
11   0.11384 
12   0.113712 
13   0.202619 
14   0.202885 
15   -0.472627 
16   -0.472729 
17   0.162396 
18   0.169657 
19   0.169677 
20   0.1624 
21   0.169688 
22   0.169613 
23   0.130707 
24   0.130652 
25   0.128644 
26   0.128685 
27   0.138596 
28   0.138582 
 
>  <lowdin_charges> 
28 
1   -0.444477 
2   -0.444948 
3   -0.158307 
4   -0.161212 
5   -0.189688 
6   -0.19051 
7   -0.083813 
8   -0.081177 
9   0.02316 
10   0.022134 
11   -0.026944 
12   -0.025654 
13   0.040406 
14   0.038642 
15   -0.12654 
16   -0.125707 
17   0.160858 
18   0.165389 
19   0.165379 
20   0.162428 
21   0.16512 
22   0.165092 
23   0.159052 
24   0.161381 
25   0.159932 
26   0.160731 
27   0.156125 
28   0.153147 
 
$$$$ 
 
