PCCDB-ID:  7485 
public computational chemistry database (PCCDB) project, http://pccdb.org 
 
 18 18  0  0  0  0  0  0  0  0999 V2000 
    2.5159   -0.9470    0.2403 C   0  0  0  0  0  0  0  0  0  0  0  0 
    4.0940    2.8104    2.7959 C   0  0  0  0  0  0  0  0  0  0  0  0 
    4.8903    0.5879    3.3850 C   0  0  0  0  0  0  0  0  0  0  0  0 
    3.3319    2.2644    1.7778 C   0  0  0  0  0  0  0  0  0  0  0  0 
    4.1242    0.0375    2.3613 C   0  0  0  0  0  0  0  0  0  0  0  0 
    4.8697    1.9641    3.5951 C   0  0  0  0  0  0  0  0  0  0  0  0 
    3.3399    0.8751    1.5520 C   0  0  0  0  0  0  0  0  0  0  0  0 
    5.6771    2.5358    4.6711 N   0  0  0  0  0  0  0  0  0  0  0  0 
    5.6378    3.7575    4.8318 O   0  0  0  0  0  0  0  0  0  0  0  0 
    6.3518    1.7649    5.3574 O   0  0  0  0  0  0  0  0  0  0  0  0 
    2.5580    0.4456    0.5325 O   0  0  0  0  0  0  0  0  0  0  0  0 
    1.8355   -1.0508   -0.6059 H   0  0  0  0  0  0  0  0  0  0  0  0 
    2.1305   -1.5220    1.0914 H   0  0  0  0  0  0  0  0  0  0  0  0 
    3.5065   -1.3266   -0.0389 H   0  0  0  0  0  0  0  0  0  0  0  0 
    4.1011    3.8764    2.9863 H   0  0  0  0  0  0  0  0  0  0  0  0 
    5.5033   -0.0371    4.0227 H   0  0  0  0  0  0  0  0  0  0  0  0 
    2.7181    2.8893    1.1378 H   0  0  0  0  0  0  0  0  0  0  0  0 
    4.1435   -1.0340    2.2027 H   0  0  0  0  0  0  0  0  0  0  0  0 
  1 11  1  0  0  0  0 
  1 13  1  0  0  0  0 
  2 15  1  0  0  0  0 
  2  6  2  0  0  0  0 
  3  6  1  0  0  0  0 
  3 16  1  0  0  0  0 
  4  2  1  0  0  0  0 
  5  3  2  0  0  0  0 
  6  8  1  0  0  0  0 
  7  4  2  0  0  0  0 
  7  5  1  0  0  0  0 
  8  9  2  0  0  0  0 
  8 10  2  0  0  0  0 
 11  7  1  0  0  0  0 
 12  1  1  0  0  0  0 
 14  1  1  0  0  0  0 
 17  4  1  0  0  0  0 
 18  5  1  0  0  0  0 
M  END 
>  <HBA> 
1 
 
>  <HBD> 
0 
 
>  <TPSA> 
55.05 
 
>  <cid> 
7485 
 
>  <dipole> 
6.0 
 
>  <excitation_energy_1> 
3.771 
 
>  <excitation_energy_2> 
4.102 
 
>  <excitation_energy_3> 
4.321 
 
>  <excitation_energy_4> 
4.459 
 
>  <homo_energy> 
-6.759 
 
>  <homo_lumo_gap> 
4.599 
 
>  <logP> 
2.127 
 
>  <lumo_energy> 
-2.161 
 
>  <melting_point> 
48.22 
 
>  <molecular_refractivity> 
41.76 
 
>  <oscillator_strength_1> 
0.0 
 
>  <oscillator_strength_2> 
0.3003 
 
>  <oscillator_strength_3> 
0.0003 
 
>  <oscillator_strength_4> 
0.0121 
 
>  <open_babel_can_smiles> 
COc1ccc(cc1)N(=O)=O 
 
>  <mulliken_charges> 
18 
1   -0.224009 
2   -0.150947 
3   -0.156974 
4   -0.183129 
5   -0.204646 
6   0.273286 
7   0.399275 
8   0.373363 
9   -0.402532 
10   -0.40501 
11   -0.497017 
12   0.181122 
13   0.162076 
14   0.162052 
15   0.183916 
16   0.184056 
17   0.156705 
18   0.148413 
 
>  <lowdin_charges> 
18 
1   -0.277348 
2   -0.126337 
3   -0.125564 
4   -0.175972 
5   -0.207184 
6   -0.019754 
7   0.121032 
8   0.308945 
9   -0.253409 
10   -0.258305 
11   -0.182434 
12   0.169709 
13   0.152362 
14   0.151103 
15   0.187225 
16   0.189587 
17   0.17742 
18   0.168922 
 
$$$$ 
 
