PCCDB-ID:  55206 
public computational chemistry database (PCCDB) project, http://pccdb.org 
 
 23 23  0  0  0  0  0  0  0  0999 V2000 
    4.4891   -0.6727    2.9588 C   0  0  0  0  0  0  0  0  0  0  0  0 
    0.6025   -1.4865    2.5466 C   0  0  0  0  0  0  0  0  0  0  0  0 
    1.8246   -3.5681    2.7150 C   0  0  0  0  0  0  0  0  0  0  0  0 
   -0.4045   -2.0045    3.3532 C   0  0  0  0  0  0  0  0  0  0  0  0 
    0.8237   -4.1030    3.5233 C   0  0  0  0  0  0  0  0  0  0  0  0 
    2.8136   -1.6825    1.3359 C   0  0  0  0  0  0  0  0  0  0  0  0 
    1.7265   -2.2625    2.2185 C   0  0  0  0  0  0  0  0  0  0  0  0 
   -0.2775   -3.3090    3.8307 C   0  0  0  0  0  0  0  0  0  0  0  0 
    3.1882    0.7380    1.5611 N   0  0  0  0  0  0  0  0  0  0  0  0 
    3.4774   -0.5188    1.9301 N   0  0  0  0  0  0  0  0  0  0  0  0 
   -1.3397   -3.8642    4.6852 N   0  0  0  0  0  0  0  0  0  0  0  0 
    2.2970    0.8556    0.7249 O   0  0  0  0  0  0  0  0  0  0  0  0 
   -2.3027   -3.1423    4.9409 O   0  0  0  0  0  0  0  0  0  0  0  0 
   -1.2004   -5.0171    5.0934 O   0  0  0  0  0  0  0  0  0  0  0  0 
    4.0738   -1.1761    3.8392 H   0  0  0  0  0  0  0  0  0  0  0  0 
    4.8294    0.3263    3.2372 H   0  0  0  0  0  0  0  0  0  0  0  0 
    5.3384   -1.2566    2.5837 H   0  0  0  0  0  0  0  0  0  0  0  0 
    0.5210   -0.4760    2.1578 H   0  0  0  0  0  0  0  0  0  0  0  0 
    2.6905   -4.1766    2.4668 H   0  0  0  0  0  0  0  0  0  0  0  0 
   -1.2804   -1.4231    3.6133 H   0  0  0  0  0  0  0  0  0  0  0  0 
    0.8827   -5.1114    3.9135 H   0  0  0  0  0  0  0  0  0  0  0  0 
    2.3918   -1.3277    0.3907 H   0  0  0  0  0  0  0  0  0  0  0  0 
    3.5808   -2.4349    1.1247 H   0  0  0  0  0  0  0  0  0  0  0  0 
  1 16  1  0  0  0  0 
  1 15  1  0  0  0  0 
  2  4  1  0  0  0  0 
  3  5  2  0  0  0  0 
  4 20  1  0  0  0  0 
  4  8  2  0  0  0  0 
  5  8  1  0  0  0  0 
  5 21  1  0  0  0  0 
  6 10  1  0  0  0  0 
  6  7  1  0  0  0  0 
  7  2  2  0  0  0  0 
  7  3  1  0  0  0  0 
  8 11  1  0  0  0  0 
  9 10  1  0  0  0  0 
 10  1  1  0  0  0  0 
 11 13  2  0  0  0  0 
 11 14  2  0  0  0  0 
 12  9  2  0  0  0  0 
 17  1  1  0  0  0  0 
 18  2  1  0  0  0  0 
 19  3  1  0  0  0  0 
 22  6  1  0  0  0  0 
 23  6  1  0  0  0  0 
M  END 
>  <HBA> 
3 
 
>  <HBD> 
0 
 
>  <TPSA> 
78.49 
 
>  <cid> 
55206 
 
>  <dipole> 
5.06 
 
>  <excitation_energy_1> 
3.333 
 
>  <excitation_energy_2> 
3.523 
 
>  <excitation_energy_3> 
3.732 
 
>  <excitation_energy_4> 
4.174 
 
>  <homo_energy> 
-6.544 
 
>  <homo_lumo_gap> 
3.995 
 
>  <logP> 
2.231 
 
>  <lumo_energy> 
-2.55 
 
>  <melting_point> 
67.97 
 
>  <molecular_refractivity> 
52.67 
 
>  <oscillator_strength_1> 
0.013 
 
>  <oscillator_strength_2> 
0.0334 
 
>  <oscillator_strength_3> 
0.0001 
 
>  <oscillator_strength_4> 
0.0376 
 
>  <open_babel_can_smiles> 
O=NN(Cc1ccc(cc1)N(=O)=O)C 
 
>  <mulliken_charges> 
23 
1   -0.312299 
2   -0.188251 
3   -0.201007 
4   -0.148073 
5   -0.146572 
6   -0.256589 
7   0.18317 
8   0.273953 
9   0.160754 
10   -0.200275 
11   0.380968 
12   -0.374314 
13   -0.391715 
14   -0.394561 
15   0.17658 
16   0.197685 
17   0.167196 
18   0.176724 
19   0.143899 
20   0.188668 
21   0.185726 
22   0.212072 
23   0.166259 
 
>  <lowdin_charges> 
23 
1   -0.355961 
2   -0.148717 
3   -0.162612 
4   -0.133296 
5   -0.134187 
6   -0.217443 
7   0.005263 
8   0.00154 
9   0.061016 
10   -0.0387 
11   0.307706 
12   -0.271069 
13   -0.243731 
14   -0.244907 
15   0.163004 
16   0.180157 
17   0.158306 
18   0.178755 
19   0.165037 
20   0.190998 
21   0.188303 
22   0.187948 
23   0.162588 
 
$$$$ 
 
