PCCDB-ID:  66774 
public computational chemistry database (PCCDB) project, http://pccdb.org 
 
 12 11  0  0  0  0  0  0  0  0999 V2000 
    2.4171    0.9298   -0.8553 C   0  0  0  0  0  0  0  0  0  0  0  0 
    1.8445   -1.2243    2.1148 C   0  0  0  0  0  0  0  0  0  0  0  0 
    2.5943   -0.4086    1.0741 C   0  0  0  0  0  0  0  0  0  0  0  0 
    2.7351   -1.7787    3.0466 O   0  0  0  0  0  0  0  0  0  0  0  0 
    3.8031   -0.2829    1.0859 O   0  0  0  0  0  0  0  0  0  0  0  0 
    1.7771    0.1398    0.1662 O   0  0  0  0  0  0  0  0  0  0  0  0 
    1.6098    1.2866   -1.4944 H   0  0  0  0  0  0  0  0  0  0  0  0 
    3.1194    0.3172   -1.4260 H   0  0  0  0  0  0  0  0  0  0  0  0 
    2.9539    1.7692   -0.4065 H   0  0  0  0  0  0  0  0  0  0  0  0 
    1.2721   -2.0071    1.5942 H   0  0  0  0  0  0  0  0  0  0  0  0 
    1.1105   -0.5680    2.6066 H   0  0  0  0  0  0  0  0  0  0  0  0 
    3.6238   -1.4886    2.7683 H   0  0  0  0  0  0  0  0  0  0  0  0 
  1  9  1  0  0  0  0 
  1  6  1  0  0  0  0 
  2 11  1  0  0  0  0 
  2  4  1  0  0  0  0 
  3  5  2  0  0  0  0 
  3  2  1  0  0  0  0 
  6  3  1  0  0  0  0 
  7  1  1  0  0  0  0 
  8  1  1  0  0  0  0 
 10  2  1  0  0  0  0 
 12  4  1  0  0  0  0 
M  END 
>  <HBA> 
3 
 
>  <HBD> 
1 
 
>  <TPSA> 
46.53 
 
>  <cid> 
66774 
 
>  <dipole> 
3.0 
 
>  <excitation_energy_1> 
6.118 
 
>  <excitation_energy_2> 
6.335 
 
>  <excitation_energy_3> 
6.895 
 
>  <excitation_energy_4> 
7.518 
 
>  <homo_energy> 
-7.328 
 
>  <homo_lumo_gap> 
7.293 
 
>  <logP> 
-0.848 
 
>  <lumo_energy> 
-0.035 
 
>  <melting_point> 
6.49 
 
>  <molecular_refractivity> 
18.98 
 
>  <oscillator_strength_1> 
0.0009 
 
>  <oscillator_strength_2> 
0.0278 
 
>  <oscillator_strength_3> 
0.0002 
 
>  <oscillator_strength_4> 
0.023 
 
>  <open_babel_can_smiles> 
COC(=O)CO 
 
>  <mulliken_charges> 
12 
1   -0.22339 
2   -0.073134 
3   0.572688 
4   -0.623427 
5   -0.483312 
6   -0.438336 
7   0.172838 
8   0.177356 
9   0.177279 
10   0.165171 
11   0.165414 
12   0.410854 
 
>  <lowdin_charges> 
12 
1   -0.279217 
2   -0.157923 
3   0.176563 
4   -0.460944 
5   -0.267653 
6   -0.177463 
7   0.166471 
8   0.16483 
9   0.164129 
10   0.160482 
11   0.160381 
12   0.350344 
 
$$$$ 
 
