PCCDB-ID:  18213 
public computational chemistry database (PCCDB) project, http://pccdb.org 
 
 14 13  0  0  0  0  0  0  0  0999 V2000 
    1.5891    1.5495   -0.4171 C   0  0  0  0  0  0  0  0  0  0  0  0 
    3.2093   -3.3928    0.0171 C   0  0  0  0  0  0  0  0  0  0  0  0 
    2.7104    0.8802   -0.1079 C   0  0  0  0  0  0  0  0  0  0  0  0 
    2.8394   -0.5671   -0.0768 C   0  0  0  0  0  0  0  0  0  0  0  0 
    3.9995   -1.1711    0.2472 C   0  0  0  0  0  0  0  0  0  0  0  0 
    4.2693   -2.4956    0.3189 O   0  0  0  0  0  0  0  0  0  0  0  0 
    1.5571    2.6344   -0.4224 H   0  0  0  0  0  0  0  0  0  0  0  0 
    0.6678    1.0323   -0.6759 H   0  0  0  0  0  0  0  0  0  0  0  0 
    3.6224   -4.3974    0.1212 H   0  0  0  0  0  0  0  0  0  0  0  0 
    2.8483   -3.2465   -1.0092 H   0  0  0  0  0  0  0  0  0  0  0  0 
    2.3720   -3.2635    0.7151 H   0  0  0  0  0  0  0  0  0  0  0  0 
    3.6077    1.4474    0.1441 H   0  0  0  0  0  0  0  0  0  0  0  0 
    1.9575   -1.1508   -0.3269 H   0  0  0  0  0  0  0  0  0  0  0  0 
    4.8888   -0.5985    0.4989 H   0  0  0  0  0  0  0  0  0  0  0  0 
  1  3  2  0  0  0  0 
  2  9  1  0  0  0  0 
  2  6  1  0  0  0  0 
  2 11  1  0  0  0  0 
  3  4  1  0  0  0  0 
  3 12  1  0  0  0  0 
  4  5  2  0  0  0  0 
  5  6  1  0  0  0  0 
  5 14  1  0  0  0  0 
  7  1  1  0  0  0  0 
  8  1  1  0  0  0  0 
 10  2  1  0  0  0  0 
 13  4  1  0  0  0  0 
M  END 
>  <HBA> 
1 
 
>  <HBD> 
0 
 
>  <TPSA> 
9.23 
 
>  <cid> 
18213 
 
>  <dipole> 
1.2 
 
>  <excitation_energy_1> 
5.229 
 
>  <excitation_energy_2> 
5.323 
 
>  <excitation_energy_3> 
5.441 
 
>  <excitation_energy_4> 
5.656 
 
>  <homo_energy> 
-5.486 
 
>  <homo_lumo_gap> 
5.399 
 
>  <logP> 
1.333 
 
>  <lumo_energy> 
-0.087 
 
>  <melting_point> 
-45.66 
 
>  <molecular_refractivity> 
26.29 
 
>  <oscillator_strength_1> 
0.0025 
 
>  <oscillator_strength_2> 
0.6387 
 
>  <oscillator_strength_3> 
0.0 
 
>  <oscillator_strength_4> 
0.0184 
 
>  <open_babel_can_smiles> 
CO/C=C/C=C 
 
>  <mulliken_charges> 
14 
1   -0.371017 
2   -0.215656 
3   -0.052847 
4   -0.169722 
5   0.108465 
6   -0.436414 
7   0.136667 
8   0.130433 
9   0.16969 
10   0.155748 
11   0.155796 
12   0.119658 
13   0.123527 
14   0.145672 
 
>  <lowdin_charges> 
14 
1   -0.357356 
2   -0.277765 
3   -0.135154 
4   -0.234955 
5   -0.045109 
6   -0.18695 
7   0.15655 
8   0.152487 
9   0.162135 
10   0.147119 
11   0.148653 
12   0.151077 
13   0.158237 
14   0.161031 
 
$$$$ 
 
