PCCDB-ID:  11685 
public computational chemistry database (PCCDB) project, http://pccdb.org 
 
 24 23  0  0  1  0  0  0  0  0999 V2000 
    1.7792    0.8796   -0.9181 C   0  0  0  0  0  0  0  0  0  0  0  0 
    3.1726   -3.2508   -2.1454 C   0  0  0  0  0  0  0  0  0  0  0  0 
    0.8053   -2.5316   -1.6426 C   0  0  0  0  0  0  0  0  0  0  0  0 
    2.8470   -2.4772    0.8106 C   0  0  0  0  0  0  0  0  0  0  0  0 
    1.9068   -0.2520    0.1064 C   0  0  0  0  0  0  0  0  0  0  0  0 
    2.2775   -2.0919   -1.6737 C   0  0  0  0  0  0  0  0  0  0  0  0 
    2.7692   -1.4596   -0.3398 C   0  0  2  0  0  0  0  0  0  0  0  0 
    4.1002   -0.9921   -0.6423 O   0  0  0  0  0  0  0  0  0  0  0  0 
    1.2966    1.7546   -0.4682 H   0  0  0  0  0  0  0  0  0  0  0  0 
    1.1783    0.5839   -1.7850 H   0  0  0  0  0  0  0  0  0  0  0  0 
    2.7669    1.1809   -1.2809 H   0  0  0  0  0  0  0  0  0  0  0  0 
    2.9114   -3.5318   -3.1726 H   0  0  0  0  0  0  0  0  0  0  0  0 
    3.0449   -4.1451   -1.5233 H   0  0  0  0  0  0  0  0  0  0  0  0 
    4.2271   -2.9647   -2.1259 H   0  0  0  0  0  0  0  0  0  0  0  0 
    0.5140   -2.9306   -2.6212 H   0  0  0  0  0  0  0  0  0  0  0  0 
    0.1232   -1.7073   -1.4100 H   0  0  0  0  0  0  0  0  0  0  0  0 
    0.6358   -3.3266   -0.9061 H   0  0  0  0  0  0  0  0  0  0  0  0 
    1.8674   -2.9077    1.0451 H   0  0  0  0  0  0  0  0  0  0  0  0 
    3.2120   -1.9872    1.7232 H   0  0  0  0  0  0  0  0  0  0  0  0 
    3.5359   -3.2908    0.5693 H   0  0  0  0  0  0  0  0  0  0  0  0 
    0.9127   -0.6025    0.4113 H   0  0  0  0  0  0  0  0  0  0  0  0 
    2.3695    0.1486    1.0214 H   0  0  0  0  0  0  0  0  0  0  0  0 
    2.3744   -1.2943   -2.4219 H   0  0  0  0  0  0  0  0  0  0  0  0 
    4.4754   -0.6407    0.1812 H   0  0  0  0  0  0  0  0  0  0  0  0 
  1  9  1  0  0  0  0 
  1  5  1  0  0  0  0 
  2 14  1  0  0  0  0 
  2  6  1  0  0  0  0 
  2 13  1  0  0  0  0 
  3 16  1  0  0  0  0 
  3 17  1  0  0  0  0 
  4 18  1  0  0  0  0 
  4 19  1  0  0  0  0 
  5 21  1  0  0  0  0 
  5 22  1  0  0  0  0 
  6  3  1  0  0  0  0 
  6  7  1  0  0  0  0 
  7  8  1  6  0  0  0 
  7  5  1  0  0  0  0 
  7  4  1  0  0  0  0 
  8 24  1  0  0  0  0 
 10  1  1  0  0  0  0 
 11  1  1  0  0  0  0 
 12  2  1  0  0  0  0 
 15  3  1  0  0  0  0 
 20  4  1  0  0  0  0 
 23  6  1  0  0  0  0 
M  END 
>  <HBA> 
1 
 
>  <HBD> 
1 
 
>  <TPSA> 
20.23 
 
>  <cid> 
11685 
 
>  <dipole> 
1.39 
 
>  <excitation_energy_1> 
6.395 
 
>  <excitation_energy_2> 
7.066 
 
>  <excitation_energy_3> 
7.233 
 
>  <excitation_energy_4> 
7.344 
 
>  <homo_energy> 
-7.034 
 
>  <homo_lumo_gap> 
8.822 
 
>  <logP> 
1.803 
 
>  <lumo_energy> 
1.788 
 
>  <melting_point> 
2.41 
 
>  <molecular_refractivity> 
36.96 
 
>  <oscillator_strength_1> 
0.0103 
 
>  <oscillator_strength_2> 
0.0019 
 
>  <oscillator_strength_3> 
0.0101 
 
>  <oscillator_strength_4> 
0.0054 
 
>  <open_babel_can_smiles> 
CC[C@@](C(C)C)(O)C 
 
>  <mulliken_charges> 
24 
1   -0.451691 
2   -0.45668 
3   -0.459967 
4   -0.474359 
5   -0.267609 
6   -0.075262 
7   0.318942 
8   -0.645444 
9   0.138228 
10   0.146749 
11   0.159614 
12   0.134586 
13   0.133824 
14   0.16889 
15   0.14385 
16   0.145265 
17   0.140909 
18   0.145535 
19   0.127197 
20   0.159584 
21   0.133912 
22   0.113381 
23   0.13832 
24   0.382225 
 
>  <lowdin_charges> 
24 
1   -0.451537 
2   -0.446239 
3   -0.449904 
4   -0.461593 
5   -0.288216 
6   -0.127467 
7   0.11954 
8   -0.464412 
9   0.149728 
10   0.148524 
11   0.155903 
12   0.145716 
13   0.142064 
14   0.160276 
15   0.151592 
16   0.149378 
17   0.146239 
18   0.152671 
19   0.1436 
20   0.158893 
21   0.144083 
22   0.134969 
23   0.148442 
24   0.337751 
 
$$$$ 
 
