PCCDB-ID:  13196 
public computational chemistry database (PCCDB) project, http://pccdb.org 
 
 10 10  0  0  0  0  0  0  0  0999 V2000 
   -0.7427   -1.1376   -0.3519 C   0  0  0  0  0  0  0  0  0  0  0  0 
    0.6853   -1.1245    0.1854 C   0  0  0  0  0  0  0  0  0  0  0  0 
    0.0092    1.4544   -0.2407 C   0  0  0  0  0  0  0  0  0  0  0  0 
    0.0340    3.0924   -0.3365 S   0  0  0  0  0  0  0  0  0  0  0  0 
   -1.4799    0.5158   -0.0359 S   0  0  0  0  0  0  0  0  0  0  0  0 
    1.4693    0.4542   -0.3332 S   0  0  0  0  0  0  0  0  0  0  0  0 
   -1.3546   -1.8876    0.1582 H   0  0  0  0  0  0  0  0  0  0  0  0 
   -0.7620   -1.3341   -1.4279 H   0  0  0  0  0  0  0  0  0  0  0  0 
    1.2745   -1.9499   -0.2253 H   0  0  0  0  0  0  0  0  0  0  0  0 
    0.7004   -1.1850    1.2776 H   0  0  0  0  0  0  0  0  0  0  0  0 
  1  5  1  0  0  0  0 
  1  7  1  0  0  0  0 
  1  2  1  0  0  0  0 
  2 10  1  0  0  0  0 
  3  5  1  0  0  0  0 
  4  3  2  0  0  0  0 
  6  3  1  0  0  0  0 
  6  2  1  0  0  0  0 
  8  1  1  0  0  0  0 
  9  2  1  0  0  0  0 
M  END 
>  <HBA> 
3 
 
>  <HBD> 
0 
 
>  <TPSA> 
82.69 
 
>  <cid> 
13196 
 
>  <dipole> 
5.26 
 
>  <excitation_energy_1> 
2.819 
 
>  <excitation_energy_2> 
4.366 
 
>  <excitation_energy_3> 
4.39 
 
>  <excitation_energy_4> 
4.56 
 
>  <homo_energy> 
-6.117 
 
>  <homo_lumo_gap> 
4.174 
 
>  <logP> 
1.751 
 
>  <lumo_energy> 
-1.943 
 
>  <melting_point> 
46.31 
 
>  <molecular_refractivity> 
37.39 
 
>  <oscillator_strength_1> 
0.0003 
 
>  <oscillator_strength_2> 
0.0416 
 
>  <oscillator_strength_3> 
0.1822 
 
>  <oscillator_strength_4> 
0.0267 
 
>  <open_babel_can_smiles> 
S=C1SCCS1 
 
>  <mulliken_charges> 
10 
1   -0.444251 
2   -0.444308 
3   -0.345143 
4   -0.104935 
5   0.264691 
6   0.26459 
7   0.199043 
8   0.205638 
9   0.199013 
10   0.205664 
 
>  <lowdin_charges> 
10 
1   -0.381366 
2   -0.380613 
3   -0.347542 
4   -0.071713 
5   0.236402 
6   0.236155 
7   0.181902 
8   0.172744 
9   0.181596 
10   0.172435 
 
$$$$ 
 
