PCCDB-ID:  69599 
public computational chemistry database (PCCDB) project, http://pccdb.org 
 
 12 11  0  0  0  0  0  0  0  0999 V2000 
    0.8597    0.5714   -0.2432 C   0  0  0  0  0  0  0  0  0  0  0  0 
    5.0336   -0.2135   -0.0281 C   0  0  0  0  0  0  0  0  0  0  0  0 
    5.0670    1.4543    1.7884 C   0  0  0  0  0  0  0  0  0  0  0  0 
    2.9948    0.9213    0.6852 C   0  0  0  0  0  0  0  0  0  0  0  0 
    4.3370    0.7175    0.8044 C   0  0  0  0  0  0  0  0  0  0  0  0 
    5.6038   -0.9694   -0.7032 N   0  0  0  0  0  0  0  0  0  0  0  0 
    5.6513    2.0591    2.5925 N   0  0  0  0  0  0  0  0  0  0  0  0 
    2.2641    0.2677   -0.2062 O   0  0  0  0  0  0  0  0  0  0  0  0 
    0.4398   -0.0666   -1.0200 H   0  0  0  0  0  0  0  0  0  0  0  0 
    0.7024    1.6238   -0.5009 H   0  0  0  0  0  0  0  0  0  0  0  0 
    0.3924    0.3414    0.7199 H   0  0  0  0  0  0  0  0  0  0  0  0 
    2.4902    1.6375    1.3324 H   0  0  0  0  0  0  0  0  0  0  0  0 
  1  8  1  0  0  0  0 
  1 11  1  0  0  0  0 
  2  5  1  0  0  0  0 
  3  7  3  0  0  0  0 
  4  5  2  0  0  0  0 
  4 12  1  0  0  0  0 
  5  3  1  0  0  0  0 
  6  2  3  0  0  0  0 
  8  4  1  0  0  0  0 
  9  1  1  0  0  0  0 
 10  1  1  0  0  0  0 
M  END 
>  <HBA> 
3 
 
>  <HBD> 
0 
 
>  <TPSA> 
56.81 
 
>  <cid> 
69599 
 
>  <dipole> 
7.31 
 
>  <excitation_energy_1> 
5.158 
 
>  <excitation_energy_2> 
5.717 
 
>  <excitation_energy_3> 
6.006 
 
>  <excitation_energy_4> 
6.164 
 
>  <homo_energy> 
-7.255 
 
>  <homo_lumo_gap> 
5.246 
 
>  <logP> 
0.564 
 
>  <lumo_energy> 
-2.008 
 
>  <melting_point> 
46.16 
 
>  <molecular_refractivity> 
26.26 
 
>  <oscillator_strength_1> 
0.41 
 
>  <oscillator_strength_2> 
0.0 
 
>  <oscillator_strength_3> 
0.0 
 
>  <oscillator_strength_4> 
0.0048 
 
>  <open_babel_can_smiles> 
COC=C(C#N)C#N 
 
>  <mulliken_charges> 
12 
1   -0.233121 
2   0.313373 
3   0.281386 
4   0.180486 
5   0.051295 
6   -0.465977 
7   -0.464428 
8   -0.40475 
9   0.201475 
10   0.178793 
11   0.178294 
12   0.183172 
 
>  <lowdin_charges> 
12 
1   -0.269714 
2   -0.00041 
3   -0.007967 
4   0.025343 
5   -0.085855 
6   -0.094962 
7   -0.104946 
8   -0.141919 
9   0.181826 
10   0.160516 
11   0.161704 
12   0.176385 
 
$$$$ 
 
