PCCDB-ID:  7335 
public computational chemistry database (PCCDB) project, http://pccdb.org 
 
 32 32  0  0  1  0  0  0  0  0999 V2000 
    0.2507   -1.1795    0.0581 C   0  0  0  0  0  0  0  0  0  0  0  0 
    2.1669   -0.9441   -1.4974 C   0  0  0  0  0  0  0  0  0  0  0  0 
    1.6931   -4.0548    3.6624 C   0  0  0  0  0  0  0  0  0  0  0  0 
    5.6536   -5.5790    1.6169 C   0  0  0  0  0  0  0  0  0  0  0  0 
    1.5627   -1.6100    3.1627 C   0  0  0  0  0  0  0  0  0  0  0  0 
    1.8599   -0.3452    2.3948 C   0  0  0  0  0  0  0  0  0  0  0  0 
    3.5899   -1.6986    1.2007 C   0  0  0  0  0  0  0  0  0  0  0  0 
    1.5524   -0.9253   -0.1148 C   0  0  0  0  0  0  0  0  0  0  0  0 
    2.0564   -2.8223    2.8751 C   0  0  0  0  0  0  0  0  0  0  0  0 
    4.5757   -4.6719    1.0674 C   0  0  0  0  0  0  0  0  0  0  0  0 
    2.5170   -0.5992    1.0239 C   0  0  1  0  0  0  0  0  0  0  0  0 
    2.9608   -3.0079    1.6768 C   0  0  2  0  0  0  0  0  0  0  0  0 
    4.2537   -4.5992   -0.0995 O   0  0  0  0  0  0  0  0  0  0  0  0 
    4.0200   -3.9380    2.0589 O   0  0  0  0  0  0  0  0  0  0  0  0 
   -0.3949   -1.3955   -0.7896 H   0  0  0  0  0  0  0  0  0  0  0  0 
   -0.2194   -1.1991    1.0358 H   0  0  0  0  0  0  0  0  0  0  0  0 
    1.4001   -1.0502   -2.2706 H   0  0  0  0  0  0  0  0  0  0  0  0 
    2.8733   -1.7758   -1.6154 H   0  0  0  0  0  0  0  0  0  0  0  0 
    2.7277   -0.0207   -1.6969 H   0  0  0  0  0  0  0  0  0  0  0  0 
    0.9835   -3.8165    4.4608 H   0  0  0  0  0  0  0  0  0  0  0  0 
    2.5790   -4.5179    4.1113 H   0  0  0  0  0  0  0  0  0  0  0  0 
    1.2339   -4.8157    3.0156 H   0  0  0  0  0  0  0  0  0  0  0  0 
    6.4797   -4.9770    2.0109 H   0  0  0  0  0  0  0  0  0  0  0  0 
    6.0214   -6.2286    0.8219 H   0  0  0  0  0  0  0  0  0  0  0  0 
    5.2635   -6.1793    2.4446 H   0  0  0  0  0  0  0  0  0  0  0  0 
    0.8916   -1.5106    4.0163 H   0  0  0  0  0  0  0  0  0  0  0  0 
    2.5316    0.2866    2.9969 H   0  0  0  0  0  0  0  0  0  0  0  0 
    0.9425    0.2445    2.2735 H   0  0  0  0  0  0  0  0  0  0  0  0 
    4.3153   -1.3716    1.9562 H   0  0  0  0  0  0  0  0  0  0  0  0 
    4.1405   -1.8773    0.2731 H   0  0  0  0  0  0  0  0  0  0  0  0 
    3.0463    0.3184    0.7259 H   0  0  0  0  0  0  0  0  0  0  0  0 
    2.4073   -3.4788    0.8562 H   0  0  0  0  0  0  0  0  0  0  0  0 
  1 16  1  0  0  0  0 
  2  8  1  0  0  0  0 
  3 21  1  0  0  0  0 
  3 20  1  0  0  0  0 
  4 23  1  0  0  0  0 
  4 25  1  0  0  0  0 
  5 26  1  0  0  0  0 
  6 27  1  0  0  0  0 
  6  5  1  0  0  0  0 
  7 12  1  0  0  0  0 
  7 29  1  0  0  0  0 
  8  1  2  0  0  0  0 
  8 11  1  0  0  0  0 
  9  5  2  0  0  0  0 
  9  3  1  0  0  0  0 
 10  4  1  0  0  0  0 
 10 14  1  0  0  0  0 
 11 31  1  6  0  0  0 
 11  7  1  0  0  0  0 
 11  6  1  0  0  0  0 
 12 32  1  6  0  0  0 
 12 14  1  0  0  0  0 
 12  9  1  0  0  0  0 
 13 10  2  0  0  0  0 
 15  1  1  0  0  0  0 
 17  2  1  0  0  0  0 
 18  2  1  0  0  0  0 
 19  2  1  0  0  0  0 
 22  3  1  0  0  0  0 
 24  4  1  0  0  0  0 
 28  6  1  0  0  0  0 
 30  7  1  0  0  0  0 
M  END 
>  <HBA> 
2 
 
>  <HBD> 
0 
 
>  <TPSA> 
26.3 
 
>  <cid> 
7335 
 
>  <dipole> 
1.73 
 
>  <excitation_energy_1> 
5.648 
 
>  <excitation_energy_2> 
5.717 
 
>  <excitation_energy_3> 
5.886 
 
>  <excitation_energy_4> 
6.017 
 
>  <homo_energy> 
-6.313 
 
>  <homo_lumo_gap> 
6.724 
 
>  <logP> 
2.85 
 
>  <lumo_energy> 
0.411 
 
>  <melting_point> 
0.5 
 
>  <molecular_refractivity> 
58.02 
 
>  <oscillator_strength_1> 
0.0047 
 
>  <oscillator_strength_2> 
0.0128 
 
>  <oscillator_strength_3> 
0.0163 
 
>  <oscillator_strength_4> 
0.019 
 
>  <open_babel_can_smiles> 
CC(=O)O[C@@H]1C[C@H](CC=C1C)C(=C)C 
 
>  <mulliken_charges> 
32 
1   -0.402454 
2   -0.520619 
3   -0.514192 
4   -0.526465 
5   -0.1759 
6   -0.311796 
7   -0.305734 
8   0.224218 
9   0.17431 
10   0.610671 
11   -0.163014 
12   0.077448 
13   -0.471791 
14   -0.476693 
15   0.131103 
16   0.138933 
17   0.153165 
18   0.176722 
19   0.146836 
20   0.149771 
21   0.166255 
22   0.152864 
23   0.181918 
24   0.181662 
25   0.179299 
26   0.11739 
27   0.146811 
28   0.148573 
29   0.144779 
30   0.159789 
31   0.131146 
32   0.174995 
 
>  <lowdin_charges> 
32 
1   -0.366594 
2   -0.445521 
3   -0.441541 
4   -0.467833 
5   -0.184292 
6   -0.279366 
7   -0.28492 
8   0.003181 
9   -0.024012 
10   0.198747 
11   -0.125039 
12   0.002778 
13   -0.268893 
14   -0.194797 
15   0.155663 
16   0.158574 
17   0.158309 
18   0.165765 
19   0.15211 
20   0.155753 
21   0.16202 
22   0.156889 
23   0.178989 
24   0.176144 
25   0.1767 
26   0.150626 
27   0.154556 
28   0.153985 
29   0.15145 
30   0.157893 
31   0.148629 
32   0.164046 
 
$$$$ 
 
