PCCDB-ID:  70987 
public computational chemistry database (PCCDB) project, http://pccdb.org 
 
 22 22  0  0  0  0  0  0  0  0999 V2000 
    1.0619    1.5771   -0.3970 C   0  0  0  0  0  0  0  0  0  0  0  0 
    9.5442    0.1061   -1.6077 C   0  0  0  0  0  0  0  0  0  0  0  0 
    6.8020    0.7976   -1.8003 C   0  0  0  0  0  0  0  0  0  0  0  0 
    6.6834    0.5695    0.6079 C   0  0  0  0  0  0  0  0  0  0  0  0 
    5.4452    1.1327   -1.8194 C   0  0  0  0  0  0  0  0  0  0  0  0 
    5.3364    0.9072    0.5872 C   0  0  0  0  0  0  0  0  0  0  0  0 
    2.3896    0.9192   -0.1061 C   0  0  0  0  0  0  0  0  0  0  0  0 
    7.4263    0.5123   -0.5811 C   0  0  0  0  0  0  0  0  0  0  0  0 
    4.7202    1.1850   -0.6360 C   0  0  0  0  0  0  0  0  0  0  0  0 
    2.5585   -0.0634    0.5728 O   0  0  0  0  0  0  0  0  0  0  0  0 
    8.7417    0.1714   -0.4407 O   0  0  0  0  0  0  0  0  0  0  0  0 
    3.3903    1.6111   -0.7346 O   0  0  0  0  0  0  0  0  0  0  0  0 
    0.2699    1.0409    0.1266 H   0  0  0  0  0  0  0  0  0  0  0  0 
    0.8671    1.5702   -1.4746 H   0  0  0  0  0  0  0  0  0  0  0  0 
    1.0815    2.6239   -0.0770 H   0  0  0  0  0  0  0  0  0  0  0  0 
   10.5446   -0.1691   -1.2685 H   0  0  0  0  0  0  0  0  0  0  0  0 
    9.5907    1.0755   -2.1219 H   0  0  0  0  0  0  0  0  0  0  0  0 
    9.1777   -0.6560   -2.3087 H   0  0  0  0  0  0  0  0  0  0  0  0 
    7.3516    0.7640   -2.7337 H   0  0  0  0  0  0  0  0  0  0  0  0 
    7.1861    0.3464    1.5435 H   0  0  0  0  0  0  0  0  0  0  0  0 
    4.9471    1.3605   -2.7566 H   0  0  0  0  0  0  0  0  0  0  0  0 
    4.7679    0.9454    1.5080 H   0  0  0  0  0  0  0  0  0  0  0  0 
  1  7  1  0  0  0  0 
  1 15  1  0  0  0  0 
  1 13  1  0  0  0  0 
  2 16  1  0  0  0  0 
  2 11  1  0  0  0  0 
  3  8  1  0  0  0  0 
  4 20  1  0  0  0  0 
  5  3  2  0  0  0  0 
  5  9  1  0  0  0  0 
  6  4  1  0  0  0  0 
  6 22  1  0  0  0  0 
  7 10  2  0  0  0  0 
  8 11  1  0  0  0  0 
  8  4  2  0  0  0  0 
  9  6  2  0  0  0  0 
 12  9  1  0  0  0  0 
 12  7  1  0  0  0  0 
 14  1  1  0  0  0  0 
 17  2  1  0  0  0  0 
 18  2  1  0  0  0  0 
 19  3  1  0  0  0  0 
 21  5  1  0  0  0  0 
M  END 
>  <HBA> 
3 
 
>  <HBD> 
0 
 
>  <TPSA> 
35.53 
 
>  <cid> 
70987 
 
>  <dipole> 
2.61 
 
>  <excitation_energy_1> 
4.888 
 
>  <excitation_energy_2> 
5.065 
 
>  <excitation_energy_3> 
5.417 
 
>  <excitation_energy_4> 
5.64 
 
>  <homo_energy> 
-5.821 
 
>  <homo_lumo_gap> 
5.723 
 
>  <logP> 
1.621 
 
>  <lumo_energy> 
-0.098 
 
>  <melting_point> 
35.26 
 
>  <molecular_refractivity> 
44.43 
 
>  <oscillator_strength_1> 
0.0333 
 
>  <oscillator_strength_2> 
0.15 
 
>  <oscillator_strength_3> 
0.0046 
 
>  <oscillator_strength_4> 
0.0099 
 
>  <open_babel_can_smiles> 
COc1ccc(cc1)OC(=O)C 
 
>  <mulliken_charges> 
22 
1   -0.525312 
2   -0.215093 
3   -0.204227 
4   -0.187458 
5   -0.172628 
6   -0.139236 
7   0.590993 
8   0.382479 
9   0.344033 
10   -0.446649 
11   -0.507956 
12   -0.518556 
13   0.184092 
14   0.183777 
15   0.184112 
16   0.170753 
17   0.151085 
18   0.152239 
19   0.135262 
20   0.14461 
21   0.139491 
22   0.154189 
 
>  <lowdin_charges> 
22 
1   -0.461972 
2   -0.278237 
3   -0.209616 
4   -0.1747 
5   -0.162699 
6   -0.156553 
7   0.20586 
8   0.100349 
9   0.085363 
10   -0.242356 
11   -0.199798 
12   -0.169851 
13   0.177572 
14   0.177512 
15   0.177959 
16   0.162639 
17   0.144488 
18   0.146185 
19   0.164766 
20   0.170276 
21   0.167337 
22   0.175477 
 
$$$$ 
 
