PCCDB-ID:  24053 
public computational chemistry database (PCCDB) project, http://pccdb.org 
 
 37 38  0  0  0  0  0  0  0  0999 V2000 
    3.7090    3.3484    5.2481 C   0  0  0  0  0  0  0  0  0  0  0  0 
    2.4972    5.1859    4.2853 C   0  0  0  0  0  0  0  0  0  0  0  0 
    9.5005    5.3666    3.8188 C   0  0  0  0  0  0  0  0  0  0  0  0 
    7.5895   -0.8674    0.4405 C   0  0  0  0  0  0  0  0  0  0  0  0 
    8.6000    4.8085    4.7271 C   0  0  0  0  0  0  0  0  0  0  0  0 
    9.3792    5.0716    2.4590 C   0  0  0  0  0  0  0  0  0  0  0  0 
    8.3448   -0.3426    1.4909 C   0  0  0  0  0  0  0  0  0  0  0  0 
    6.4409   -0.1945    0.0197 C   0  0  0  0  0  0  0  0  0  0  0  0 
    7.5802    3.9679    4.2777 C   0  0  0  0  0  0  0  0  0  0  0  0 
    8.3644    4.2263    2.0123 C   0  0  0  0  0  0  0  0  0  0  0  0 
    7.9536    0.8400    2.1165 C   0  0  0  0  0  0  0  0  0  0  0  0 
    6.0491    0.9871    0.6468 C   0  0  0  0  0  0  0  0  0  0  0  0 
    5.0442    3.0348    2.5782 C   0  0  0  0  0  0  0  0  0  0  0  0 
    4.4126    4.2882    3.1212 C   0  0  0  0  0  0  0  0  0  0  0  0 
    7.4403    3.6714    2.9129 C   0  0  0  0  0  0  0  0  0  0  0  0 
    6.7898    1.5206    1.7165 C   0  0  0  0  0  0  0  0  0  0  0  0 
    6.3563    2.7641    2.4187 C   0  0  0  0  0  0  0  0  0  0  0  0 
    3.2852    3.9929    4.0123 N   0  0  0  0  0  0  0  0  0  0  0  0 
    2.8281    3.0679    5.8361 H   0  0  0  0  0  0  0  0  0  0  0  0 
    4.3484    3.9968    5.8811 H   0  0  0  0  0  0  0  0  0  0  0  0 
    4.2700    2.4371    5.0187 H   0  0  0  0  0  0  0  0  0  0  0  0 
    1.6280    4.9199    4.8969 H   0  0  0  0  0  0  0  0  0  0  0  0 
    2.1329    5.6140    3.3448 H   0  0  0  0  0  0  0  0  0  0  0  0 
    3.0626    5.9733    4.8235 H   0  0  0  0  0  0  0  0  0  0  0  0 
   10.2944    6.0218    4.1676 H   0  0  0  0  0  0  0  0  0  0  0  0 
    7.8984   -1.7854   -0.0522 H   0  0  0  0  0  0  0  0  0  0  0  0 
    8.6926    5.0225    5.7888 H   0  0  0  0  0  0  0  0  0  0  0  0 
   10.0783    5.4984    1.7444 H   0  0  0  0  0  0  0  0  0  0  0  0 
    9.2428   -0.8555    1.8260 H   0  0  0  0  0  0  0  0  0  0  0  0 
    5.8548   -0.5823   -0.8096 H   0  0  0  0  0  0  0  0  0  0  0  0 
    6.8873    3.5280    4.9892 H   0  0  0  0  0  0  0  0  0  0  0  0 
    8.2793    3.9937    0.9542 H   0  0  0  0  0  0  0  0  0  0  0  0 
    8.5484    1.2387    2.9327 H   0  0  0  0  0  0  0  0  0  0  0  0 
    5.1709    1.5177    0.2908 H   0  0  0  0  0  0  0  0  0  0  0  0 
    4.3193    2.2978    2.2349 H   0  0  0  0  0  0  0  0  0  0  0  0 
    3.9989    4.8511    2.2701 H   0  0  0  0  0  0  0  0  0  0  0  0 
    5.1633    4.9451    3.5943 H   0  0  0  0  0  0  0  0  0  0  0  0 
  1 19  1  0  0  0  0 
  1 20  1  0  0  0  0 
  2 24  1  0  0  0  0 
  2 22  1  0  0  0  0 
  3 25  1  0  0  0  0 
  3  5  2  0  0  0  0 
  4  7  1  0  0  0  0 
  5 27  1  0  0  0  0 
  6  3  1  0  0  0  0 
  7 29  1  0  0  0  0 
  7 11  2  0  0  0  0 
  8  4  2  0  0  0  0 
  8 12  1  0  0  0  0 
  9  5  1  0  0  0  0 
  9 31  1  0  0  0  0 
 10  6  2  0  0  0  0 
 10 15  1  0  0  0  0 
 11 33  1  0  0  0  0 
 12 16  2  0  0  0  0 
 13 14  1  0  0  0  0 
 14 37  1  0  0  0  0 
 14 18  1  0  0  0  0 
 15  9  2  0  0  0  0 
 16 11  1  0  0  0  0 
 16 17  1  0  0  0  0 
 17 13  2  0  0  0  0 
 17 15  1  0  0  0  0 
 18  2  1  0  0  0  0 
 18  1  1  0  0  0  0 
 21  1  1  0  0  0  0 
 23  2  1  0  0  0  0 
 26  4  1  0  0  0  0 
 28  6  1  0  0  0  0 
 30  8  1  0  0  0  0 
 32 10  1  0  0  0  0 
 34 12  1  0  0  0  0 
 35 13  1  0  0  0  0 
 36 14  1  0  0  0  0 
M  END 
>  <HBA> 
1 
 
>  <HBD> 
0 
 
>  <TPSA> 
3.24 
 
>  <cid> 
24053 
 
>  <dipole> 
0.73 
 
>  <excitation_energy_1> 
4.173 
 
>  <excitation_energy_2> 
4.651 
 
>  <excitation_energy_3> 
4.704 
 
>  <excitation_energy_4> 
4.81 
 
>  <homo_energy> 
-5.636 
 
>  <homo_lumo_gap> 
4.944 
 
>  <logP> 
3.68 
 
>  <lumo_energy> 
-0.691 
 
>  <melting_point> 
48.69 
 
>  <molecular_refractivity> 
78.34 
 
>  <oscillator_strength_1> 
0.0107 
 
>  <oscillator_strength_2> 
0.1833 
 
>  <oscillator_strength_3> 
0.0265 
 
>  <oscillator_strength_4> 
0.0531 
 
>  <open_babel_can_smiles> 
CN(CC=C(c1ccccc1)c1ccccc1)C 
 
>  <mulliken_charges> 
37 
1   -0.302789 
2   -0.291642 
3   -0.126765 
4   -0.128013 
5   -0.1342 
6   -0.133445 
7   -0.131513 
8   -0.132383 
9   -0.170452 
10   -0.157368 
11   -0.179318 
12   -0.179869 
13   -0.167051 
14   -0.161207 
15   0.056691 
16   0.113949 
17   0.018659 
18   -0.369829 
19   0.147474 
20   0.114832 
21   0.159877 
22   0.147809 
23   0.147078 
24   0.116854 
25   0.129247 
26   0.12797 
27   0.130024 
28   0.130733 
29   0.129112 
30   0.128597 
31   0.137899 
32   0.13684 
33   0.13964 
34   0.130227 
35   0.140911 
36   0.147651 
37   0.133766 
 
>  <lowdin_charges> 
37 
1   -0.363311 
2   -0.35824 
3   -0.158234 
4   -0.158134 
5   -0.156222 
6   -0.157535 
7   -0.156625 
8   -0.157457 
9   -0.166535 
10   -0.154113 
11   -0.15976 
12   -0.162335 
13   -0.169426 
14   -0.203371 
15   -0.002866 
16   -0.003197 
17   -0.017407 
18   -0.184057 
19   0.150301 
20   0.119279 
21   0.155001 
22   0.150006 
23   0.148939 
24   0.120821 
25   0.158401 
26   0.157221 
27   0.15623 
28   0.159462 
29   0.157702 
30   0.157962 
31   0.162192 
32   0.160467 
33   0.164654 
34   0.159367 
35   0.162287 
36   0.153615 
37   0.134919 
 
$$$$ 
 
