PCCDB-ID:  26396 
public computational chemistry database (PCCDB) project, http://pccdb.org 
 
 30 30  0  0  1  0  0  0  0  0999 V2000 
    1.5078   -0.9445   -0.1714 C   0  0  0  0  0  0  0  0  0  0  0  0 
    4.7581    2.7987    2.8039 C   0  0  0  0  0  0  0  0  0  0  0  0 
    2.4244    3.7005    2.8445 C   0  0  0  0  0  0  0  0  0  0  0  0 
    4.5902    0.1668    0.8274 C   0  0  0  0  0  0  0  0  0  0  0  0 
    2.2382    0.1421    0.0738 C   0  0  0  0  0  0  0  0  0  0  0  0 
    3.3485    0.0656    3.7916 C   0  0  0  0  0  0  0  0  0  0  0  0 
    2.7600   -0.4819    2.4873 C   0  0  0  0  0  0  0  0  0  0  0  0 
    2.8930    1.5096    4.0046 C   0  0  2  0  0  0  0  0  0  0  0  0 
    3.2635    2.4190    2.8025 C   0  0  0  0  0  0  0  0  0  0  0  0 
    3.1288    0.3971    1.2773 C   0  0  1  0  0  0  0  0  0  0  0  0 
    3.3553    2.0490    5.2422 O   0  0  0  0  0  0  0  0  0  0  0  0 
    2.8700    1.7914    1.5628 O   0  0  0  0  0  0  0  0  0  0  0  0 
    0.9284   -1.0355   -1.0861 H   0  0  0  0  0  0  0  0  0  0  0  0 
    1.4527   -1.7848    0.5159 H   0  0  0  0  0  0  0  0  0  0  0  0 
    4.9664    3.5221    3.5993 H   0  0  0  0  0  0  0  0  0  0  0  0 
    5.0113    3.2649    1.8472 H   0  0  0  0  0  0  0  0  0  0  0  0 
    5.4246    1.9419    2.9439 H   0  0  0  0  0  0  0  0  0  0  0  0 
    2.5696    4.2160    3.7985 H   0  0  0  0  0  0  0  0  0  0  0  0 
    1.3635    3.4560    2.7317 H   0  0  0  0  0  0  0  0  0  0  0  0 
    2.7081    4.3728    2.0278 H   0  0  0  0  0  0  0  0  0  0  0  0 
    4.6967   -0.8434    0.4183 H   0  0  0  0  0  0  0  0  0  0  0  0 
    5.3054    0.2754    1.6472 H   0  0  0  0  0  0  0  0  0  0  0  0 
    4.8574    0.8841    0.0449 H   0  0  0  0  0  0  0  0  0  0  0  0 
    2.2591    0.9561   -0.6501 H   0  0  0  0  0  0  0  0  0  0  0  0 
    4.4472    0.0149    3.7763 H   0  0  0  0  0  0  0  0  0  0  0  0 
    3.0212   -0.5394    4.6450 H   0  0  0  0  0  0  0  0  0  0  0  0 
    1.6674   -0.5061    2.5773 H   0  0  0  0  0  0  0  0  0  0  0  0 
    3.0930   -1.5123    2.3155 H   0  0  0  0  0  0  0  0  0  0  0  0 
    1.8000    1.5130    4.0942 H   0  0  0  0  0  0  0  0  0  0  0  0 
    4.3182    1.9323    5.2693 H   0  0  0  0  0  0  0  0  0  0  0  0 
  1  5  2  0  0  0  0 
  1 14  1  0  0  0  0 
  2 17  1  0  0  0  0 
  2 15  1  0  0  0  0 
  3 18  1  0  0  0  0 
  4 10  1  0  0  0  0 
  4 22  1  0  0  0  0 
  6  8  1  0  0  0  0 
  6 26  1  0  0  0  0 
  7 27  1  0  0  0  0 
  7  6  1  0  0  0  0 
  8 29  1  1  0  0  0 
  8 11  1  0  0  0  0 
  9  2  1  0  0  0  0 
  9  3  1  0  0  0  0 
  9  8  1  0  0  0  0 
 10  5  1  6  0  0  0 
 10 12  1  0  0  0  0 
 10  7  1  0  0  0  0 
 11 30  1  0  0  0  0 
 12  9  1  0  0  0  0 
 13  1  1  0  0  0  0 
 16  2  1  0  0  0  0 
 19  3  1  0  0  0  0 
 20  3  1  0  0  0  0 
 21  4  1  0  0  0  0 
 23  4  1  0  0  0  0 
 24  5  1  0  0  0  0 
 25  6  1  0  0  0  0 
 28  7  1  0  0  0  0 
M  END 
>  <HBA> 
2 
 
>  <HBD> 
1 
 
>  <TPSA> 
29.46 
 
>  <cid> 
26396 
 
>  <dipole> 
1.94 
 
>  <excitation_energy_1> 
5.931 
 
>  <excitation_energy_2> 
6.033 
 
>  <excitation_energy_3> 
6.386 
 
>  <excitation_energy_4> 
6.578 
 
>  <homo_energy> 
-6.536 
 
>  <homo_lumo_gap> 
7.053 
 
>  <logP> 
1.881 
 
>  <lumo_energy> 
0.517 
 
>  <melting_point> 
4.47 
 
>  <molecular_refractivity> 
49.92 
 
>  <oscillator_strength_1> 
0.0069 
 
>  <oscillator_strength_2> 
0.0065 
 
>  <oscillator_strength_3> 
0.0151 
 
>  <oscillator_strength_4> 
0.0051 
 
>  <open_babel_can_smiles> 
C=C[C@]1(C)CC[C@H](C(O1)(C)C)O 
 
>  <mulliken_charges> 
30 
1   -0.347583 
2   -0.496017 
3   -0.456796 
4   -0.463722 
5   -0.064313 
6   -0.308829 
7   -0.295524 
8   0.118651 
9   0.338803 
10   0.310204 
11   -0.630446 
12   -0.553061 
13   0.141391 
14   0.138256 
15   0.150566 
16   0.161031 
17   0.135167 
18   0.156688 
19   0.149633 
20   0.145443 
21   0.149437 
22   0.142409 
23   0.153501 
24   0.137996 
25   0.121446 
26   0.151658 
27   0.148282 
28   0.138405 
29   0.137574 
30   0.389751 
 
>  <lowdin_charges> 
30 
1   -0.346628 
2   -0.469832 
3   -0.443952 
4   -0.457171 
5   -0.141107 
6   -0.294245 
7   -0.283033 
8   -0.014694 
9   0.114279 
10   0.129226 
11   -0.453738 
12   -0.279245 
13   0.161276 
14   0.15624 
15   0.156092 
16   0.16251 
17   0.143281 
18   0.158931 
19   0.153241 
20   0.153782 
21   0.155906 
22   0.148307 
23   0.158422 
24   0.160804 
25   0.132801 
26   0.156129 
27   0.150381 
28   0.149825 
29   0.144276 
30   0.337939 
 
$$$$ 
 
