PCCDB-ID:  38507 
public computational chemistry database (PCCDB) project, http://pccdb.org 
 
 36 36  0  0  0  0  0  0  0  0999 V2000 
    2.9411    0.2328   -1.2770 C   0  0  0  0  0  0  0  0  0  0  0  0 
    2.1247    3.2522    0.8674 C   0  0  0  0  0  0  0  0  0  0  0  0 
    3.8730    1.2963   -0.6707 C   0  0  0  0  0  0  0  0  0  0  0  0 
    2.5774    1.8764    1.3589 C   0  0  0  0  0  0  0  0  0  0  0  0 
    6.0386    5.0306    2.5244 C   0  0  0  0  0  0  0  0  0  0  0  0 
    7.2749    5.5209    2.0668 C   0  0  0  0  0  0  0  0  0  0  0  0 
    5.7842    3.6759    2.5933 C   0  0  0  0  0  0  0  0  0  0  0  0 
    8.2413    4.6158    1.6815 C   0  0  0  0  0  0  0  0  0  0  0  0 
    5.2860    0.7138    2.7096 C   0  0  0  0  0  0  0  0  0  0  0  0 
    4.4162    0.2979    1.5071 C   0  0  0  0  0  0  0  0  0  0  0  0 
    6.7554    2.7071    2.2165 C   0  0  0  0  0  0  0  0  0  0  0  0 
    8.0055    3.2303    1.7479 C   0  0  0  0  0  0  0  0  0  0  0  0 
    6.5217    1.3739    2.3304 N   0  0  0  0  0  0  0  0  0  0  0  0 
    3.8546    1.4392    0.7900 N   0  0  0  0  0  0  0  0  0  0  0  0 
    9.0898    2.3789    1.3116 N   0  0  0  0  0  0  0  0  0  0  0  0 
   10.1301    2.9012    0.9045 O   0  0  0  0  0  0  0  0  0  0  0  0 
    8.9504    1.1368    1.3557 O   0  0  0  0  0  0  0  0  0  0  0  0 
    3.0684    0.1984   -2.3653 H   0  0  0  0  0  0  0  0  0  0  0  0 
    1.8859    0.4483   -1.0753 H   0  0  0  0  0  0  0  0  0  0  0  0 
    3.1602   -0.7674   -0.8852 H   0  0  0  0  0  0  0  0  0  0  0  0 
    1.2485    3.5828    1.4363 H   0  0  0  0  0  0  0  0  0  0  0  0 
    1.8412    3.2417   -0.1901 H   0  0  0  0  0  0  0  0  0  0  0  0 
    2.9248    3.9886    0.9972 H   0  0  0  0  0  0  0  0  0  0  0  0 
    3.6438    2.2733   -1.1100 H   0  0  0  0  0  0  0  0  0  0  0  0 
    4.9085    1.0762   -0.9559 H   0  0  0  0  0  0  0  0  0  0  0  0 
    1.7712    1.1371    1.1873 H   0  0  0  0  0  0  0  0  0  0  0  0 
    2.7078    1.9236    2.4475 H   0  0  0  0  0  0  0  0  0  0  0  0 
    5.2603    5.7258    2.8289 H   0  0  0  0  0  0  0  0  0  0  0  0 
    7.4662    6.5873    2.0122 H   0  0  0  0  0  0  0  0  0  0  0  0 
    4.8142    3.3363    2.9306 H   0  0  0  0  0  0  0  0  0  0  0  0 
    9.2069    4.9401    1.3155 H   0  0  0  0  0  0  0  0  0  0  0  0 
    5.5587   -0.1904    3.2689 H   0  0  0  0  0  0  0  0  0  0  0  0 
    4.7201    1.3429    3.4019 H   0  0  0  0  0  0  0  0  0  0  0  0 
    3.6379   -0.4019    1.8662 H   0  0  0  0  0  0  0  0  0  0  0  0 
    5.0518   -0.2741    0.8216 H   0  0  0  0  0  0  0  0  0  0  0  0 
    7.2883    0.7960    2.0018 H   0  0  0  0  0  0  0  0  0  0  0  0 
  1 19  1  0  0  0  0 
  1 20  1  0  0  0  0 
  1  3  1  0  0  0  0 
  2 23  1  0  0  0  0 
  2  4  1  0  0  0  0 
  2 21  1  0  0  0  0 
  3 14  1  0  0  0  0 
  4 27  1  0  0  0  0 
  5  7  1  0  0  0  0 
  5 28  1  0  0  0  0 
  6  5  2  0  0  0  0 
  7 30  1  0  0  0  0 
  8 12  2  0  0  0  0 
  8  6  1  0  0  0  0 
  9 32  1  0  0  0  0 
  9 33  1  0  0  0  0 
 10 34  1  0  0  0  0 
 10  9  1  0  0  0  0 
 11 13  1  0  0  0  0 
 11  7  2  0  0  0  0 
 12 11  1  0  0  0  0 
 13  9  1  0  0  0  0 
 14  4  1  0  0  0  0 
 14 10  1  0  0  0  0 
 15 17  2  0  0  0  0 
 15 12  1  0  0  0  0 
 16 15  2  0  0  0  0 
 18  1  1  0  0  0  0 
 22  2  1  0  0  0  0 
 24  3  1  0  0  0  0 
 25  3  1  0  0  0  0 
 26  4  1  0  0  0  0 
 29  6  1  0  0  0  0 
 31  8  1  0  0  0  0 
 35 10  1  0  0  0  0 
 36 13  1  0  0  0  0 
M  END 
>  <HBA> 
2 
 
>  <HBD> 
1 
 
>  <TPSA> 
61.09 
 
>  <cid> 
38507 
 
>  <dipole> 
5.45 
 
>  <excitation_energy_1> 
2.876 
 
>  <excitation_energy_2> 
3.325 
 
>  <excitation_energy_3> 
3.786 
 
>  <excitation_energy_4> 
4.404 
 
>  <homo_energy> 
-5.491 
 
>  <homo_lumo_gap> 
3.486 
 
>  <logP> 
2.945 
 
>  <lumo_energy> 
-2.005 
 
>  <melting_point> 
76.98 
 
>  <molecular_refractivity> 
71.5 
 
>  <oscillator_strength_1> 
0.0879 
 
>  <oscillator_strength_2> 
0.048 
 
>  <oscillator_strength_3> 
0.0 
 
>  <oscillator_strength_4> 
0.0005 
 
>  <open_babel_can_smiles> 
CCN(CCNc1ccccc1N(=O)=O)CC 
 
>  <mulliken_charges> 
36 
1   -0.458338 
2   -0.46091 
3   -0.142331 
4   -0.115994 
5   -0.127065 
6   -0.149479 
7   -0.173538 
8   -0.163578 
9   -0.136052 
10   -0.122323 
11   0.383232 
12   0.234463 
13   -0.676855 
14   -0.370638 
15   0.362311 
16   -0.409312 
17   -0.456209 
18   0.147627 
19   0.149119 
20   0.147401 
21   0.144673 
22   0.152254 
23   0.160644 
24   0.147731 
25   0.147352 
26   0.119378 
27   0.131116 
28   0.13661 
29   0.13514 
30   0.139009 
31   0.179866 
32   0.152096 
33   0.15492 
34   0.120842 
35   0.144526 
36   0.372311 
 
>  <lowdin_charges> 
36 
1   -0.461992 
2   -0.452614 
3   -0.20198 
4   -0.196944 
5   -0.126438 
6   -0.188242 
7   -0.196975 
8   -0.129806 
9   -0.203734 
10   -0.210234 
11   0.090984 
12   -0.052736 
13   -0.258005 
14   -0.189588 
15   0.310273 
16   -0.260738 
17   -0.298272 
18   0.153613 
19   0.148055 
20   0.148326 
21   0.154659 
22   0.149678 
23   0.157462 
24   0.14701 
25   0.146397 
26   0.120594 
27   0.136101 
28   0.163013 
29   0.16095 
30   0.164816 
31   0.185975 
32   0.154372 
33   0.153401 
34   0.129141 
35   0.151513 
36   0.301963 
 
$$$$ 
 
