PCCDB-ID:  38677 
public computational chemistry database (PCCDB) project, http://pccdb.org 
 
 20 20  0  0  0  0  0  0  0  0999 V2000 
    1.1916   -0.3873   -0.0786 C   0  0  0  0  0  0  0  0  0  0  0  0 
    3.4099   -0.4088    1.1883 C   0  0  0  0  0  0  0  0  0  0  0  0 
    3.6530   -1.2599   -3.4805 C   0  0  0  0  0  0  0  0  0  0  0  0 
    3.9769   -2.3976   -2.5143 C   0  0  0  0  0  0  0  0  0  0  0  0 
    2.6865   -0.0357   -0.1088 C   0  0  0  0  0  0  0  0  0  0  0  0 
    3.3929   -0.0949   -2.5219 C   0  0  0  0  0  0  0  0  0  0  0  0 
    3.3597   -0.6359   -1.2566 N   0  0  0  0  0  0  0  0  0  0  0  0 
    3.2661    1.0894   -2.7851 O   0  0  0  0  0  0  0  0  0  0  0  0 
    3.2561   -2.0652   -1.3134 O   0  0  0  0  0  0  0  0  0  0  0  0 
    0.7030    0.1230    0.7586 H   0  0  0  0  0  0  0  0  0  0  0  0 
    1.0461   -1.4649    0.0432 H   0  0  0  0  0  0  0  0  0  0  0  0 
    0.7004   -0.0707   -1.0046 H   0  0  0  0  0  0  0  0  0  0  0  0 
    2.9463    0.1028    2.0384 H   0  0  0  0  0  0  0  0  0  0  0  0 
    4.4644   -0.1192    1.1415 H   0  0  0  0  0  0  0  0  0  0  0  0 
    3.3564   -1.4876    1.3663 H   0  0  0  0  0  0  0  0  0  0  0  0 
    2.7360   -1.4418   -4.0536 H   0  0  0  0  0  0  0  0  0  0  0  0 
    4.4553   -1.0198   -4.1815 H   0  0  0  0  0  0  0  0  0  0  0  0 
    5.0533   -2.4396   -2.2975 H   0  0  0  0  0  0  0  0  0  0  0  0 
    3.6234   -3.3840   -2.8207 H   0  0  0  0  0  0  0  0  0  0  0  0 
    2.7987    1.0373   -0.2992 H   0  0  0  0  0  0  0  0  0  0  0  0 
  1 11  1  0  0  0  0 
  1 10  1  0  0  0  0 
  2 15  1  0  0  0  0 
  2 13  1  0  0  0  0 
  3  6  1  0  0  0  0 
  3  4  1  0  0  0  0 
  4 18  1  0  0  0  0 
  4  9  1  0  0  0  0 
  5  1  1  0  0  0  0 
  5  2  1  0  0  0  0 
  6  7  1  0  0  0  0 
  7  5  1  0  0  0  0 
  8  6  2  0  0  0  0 
  9  7  1  0  0  0  0 
 12  1  1  0  0  0  0 
 14  2  1  0  0  0  0 
 16  3  1  0  0  0  0 
 17  3  1  0  0  0  0 
 19  4  1  0  0  0  0 
 20  5  1  0  0  0  0 
M  END 
>  <HBA> 
3 
 
>  <HBD> 
0 
 
>  <TPSA> 
29.54 
 
>  <cid> 
38677 
 
>  <dipole> 
2.49 
 
>  <excitation_energy_1> 
5.301 
 
>  <excitation_energy_2> 
5.571 
 
>  <excitation_energy_3> 
5.902 
 
>  <excitation_energy_4> 
5.927 
 
>  <homo_energy> 
-5.981 
 
>  <homo_lumo_gap> 
6.446 
 
>  <logP> 
0.497 
 
>  <lumo_energy> 
0.465 
 
>  <melting_point> 
13.44 
 
>  <molecular_refractivity> 
36.94 
 
>  <oscillator_strength_1> 
0.0272 
 
>  <oscillator_strength_2> 
0.0037 
 
>  <oscillator_strength_3> 
0.0393 
 
>  <oscillator_strength_4> 
0.0263 
 
>  <open_babel_can_smiles> 
CC(N1OCCC1=O)C 
 
>  <mulliken_charges> 
20 
1   -0.448734 
2   -0.444992 
3   -0.400123 
4   -0.024727 
5   0.018315 
6   0.594027 
7   -0.18437 
8   -0.508174 
9   -0.396942 
10   0.14875 
11   0.164544 
12   0.158183 
13   0.147418 
14   0.155707 
15   0.162922 
16   0.182111 
17   0.182896 
18   0.151822 
19   0.163161 
20   0.178207 
 
>  <lowdin_charges> 
20 
1   -0.452268 
2   -0.444905 
3   -0.318699 
4   -0.125999 
5   -0.051371 
6   0.142922 
7   0.00183 
8   -0.290651 
9   -0.222526 
10   0.156641 
11   0.157558 
12   0.158453 
13   0.155084 
14   0.156245 
15   0.156984 
16   0.173662 
17   0.177539 
18   0.14081 
19   0.159513 
20   0.169179 
 
$$$$ 
 
