PCCDB-ID:  29451 
public computational chemistry database (PCCDB) project, http://pccdb.org 
 
 31 33  0  0  1  0  0  0  0  0999 V2000 
    0.9506    0.4395   -0.0200 C   0  0  0  0  0  0  0  0  0  0  0  0 
    4.3442    1.6552    6.5959 C   0  0  0  0  0  0  0  0  0  0  0  0 
    5.7177    1.9192    6.7736 C   0  0  0  0  0  0  0  0  0  0  0  0 
    3.8292    1.3490    5.3422 C   0  0  0  0  0  0  0  0  0  0  0  0 
    6.6017    1.8837    5.7008 C   0  0  0  0  0  0  0  0  0  0  0  0 
    2.6124   -1.3260    0.8260 C   0  0  0  0  0  0  0  0  0  0  0  0 
    2.8027   -0.8184    2.2747 C   0  0  0  0  0  0  0  0  0  0  0  0 
    5.7553    1.1535    2.2500 C   0  0  0  0  0  0  0  0  0  0  0  0 
    2.4122   -0.0414    0.0016 C   0  0  2  0  0  0  0  0  0  0  0  0 
    4.6955    1.3078    4.2353 C   0  0  0  0  0  0  0  0  0  0  0  0 
    4.5170    1.0402    2.8282 C   0  0  0  0  0  0  0  0  0  0  0  0 
    6.0784    1.5779    4.4404 C   0  0  0  0  0  0  0  0  0  0  0  0 
    3.2339    0.6808    2.1313 C   0  0  1  0  0  0  0  0  0  0  0  0 
    6.6985    1.4697    3.2128 N   0  0  0  0  0  0  0  0  0  0  0  0 
    3.3510    0.8695    0.6703 N   0  0  0  0  0  0  0  0  0  0  0  0 
    0.3118   -0.2708   -0.5591 H   0  0  0  0  0  0  0  0  0  0  0  0 
    0.8666    1.4099   -0.5254 H   0  0  0  0  0  0  0  0  0  0  0  0 
    0.5448    0.5528    0.9924 H   0  0  0  0  0  0  0  0  0  0  0  0 
    3.6811    1.6899    7.4562 H   0  0  0  0  0  0  0  0  0  0  0  0 
    6.0928    2.1536    7.7662 H   0  0  0  0  0  0  0  0  0  0  0  0 
    2.7686    1.1433    5.2201 H   0  0  0  0  0  0  0  0  0  0  0  0 
    7.6610    2.0866    5.8387 H   0  0  0  0  0  0  0  0  0  0  0  0 
    1.7770   -2.0267    0.7253 H   0  0  0  0  0  0  0  0  0  0  0  0 
    3.5189   -1.8353    0.4831 H   0  0  0  0  0  0  0  0  0  0  0  0 
    3.5575   -1.3968    2.8134 H   0  0  0  0  0  0  0  0  0  0  0  0 
    1.8717   -0.8891    2.8466 H   0  0  0  0  0  0  0  0  0  0  0  0 
    6.0294    1.0313    1.2128 H   0  0  0  0  0  0  0  0  0  0  0  0 
    2.7427   -0.1863   -1.0358 H   0  0  0  0  0  0  0  0  0  0  0  0 
    2.4304    1.3042    2.5616 H   0  0  0  0  0  0  0  0  0  0  0  0 
    7.6740    1.6479    3.0337 H   0  0  0  0  0  0  0  0  0  0  0  0 
    3.2036    1.8422    0.4089 H   0  0  0  0  0  0  0  0  0  0  0  0 
  1  9  1  0  0  0  0 
  1 18  1  0  0  0  0 
  2  3  1  0  0  0  0 
  2 19  1  0  0  0  0 
  3 20  1  0  0  0  0 
  4  2  2  0  0  0  0 
  5 22  1  0  0  0  0 
  5  3  2  0  0  0  0 
  6  7  1  0  0  0  0 
  7 25  1  0  0  0  0 
  7 26  1  0  0  0  0 
  8 11  2  0  0  0  0 
  8 14  1  0  0  0  0 
  9 28  1  6  0  0  0 
  9 15  1  0  0  0  0 
  9  6  1  0  0  0  0 
 10 12  2  0  0  0  0 
 10  4  1  0  0  0  0 
 11 10  1  0  0  0  0 
 12  5  1  0  0  0  0 
 13  7  1  0  0  0  0 
 13 29  1  1  0  0  0 
 13 11  1  0  0  0  0 
 14 12  1  0  0  0  0 
 15 13  1  0  0  0  0 
 16  1  1  0  0  0  0 
 17  1  1  0  0  0  0 
 21  4  1  0  0  0  0 
 23  6  1  0  0  0  0 
 24  6  1  0  0  0  0 
 27  8  1  0  0  0  0 
 30 14  1  0  0  0  0 
 31 15  1  0  0  0  0 
M  END 
>  <HBA> 
1 
 
>  <HBD> 
2 
 
>  <TPSA> 
27.82 
 
>  <cid> 
29451 
 
>  <dipole> 
1.56 
 
>  <excitation_energy_1> 
4.505 
 
>  <excitation_energy_2> 
4.656 
 
>  <excitation_energy_3> 
4.799 
 
>  <excitation_energy_4> 
4.896 
 
>  <homo_energy> 
-5.151 
 
>  <homo_lumo_gap> 
5.195 
 
>  <logP> 
3.31 
 
>  <lumo_energy> 
0.044 
 
>  <melting_point> 
146.86 
 
>  <molecular_refractivity> 
67.1 
 
>  <oscillator_strength_1> 
0.0587 
 
>  <oscillator_strength_2> 
0.0009 
 
>  <oscillator_strength_3> 
0.0121 
 
>  <oscillator_strength_4> 
0.0083 
 
>  <open_babel_can_smiles> 
C[C@@H]1CC[C@H](N1)c1c[nH]c2c1cccc2 
 
>  <mulliken_charges> 
31 
1   -0.458047 
2   -0.141026 
3   -0.152196 
4   -0.21148 
5   -0.164014 
6   -0.266175 
7   -0.288239 
8   0.009177 
9   0.047184 
10   0.080766 
11   0.04882 
12   0.315103 
13   -0.021441 
14   -0.696632 
15   -0.578663 
16   0.141873 
17   0.136638 
18   0.146682 
19   0.116673 
20   0.119254 
21   0.119095 
22   0.117399 
23   0.13362 
24   0.145837 
25   0.154428 
26   0.134618 
27   0.156974 
28   0.123713 
29   0.115563 
30   0.323375 
31   0.291121 
 
>  <lowdin_charges> 
31 
1   -0.464503 
2   -0.179503 
3   -0.166763 
4   -0.164315 
5   -0.186426 
6   -0.283085 
7   -0.28843 
8   -0.130933 
9   -0.062908 
10   -0.03723 
11   -0.072127 
12   0.029579 
13   -0.057108 
14   -0.199247 
15   -0.362188 
16   0.151892 
17   0.145658 
18   0.148101 
19   0.153511 
20   0.153508 
21   0.151583 
22   0.151857 
23   0.146076 
24   0.150781 
25   0.15753 
26   0.143954 
27   0.170027 
28   0.135788 
29   0.126149 
30   0.287611 
31   0.251158 
 
$$$$ 
 
