PCCDB-ID:  7971 
public computational chemistry database (PCCDB) project, http://pccdb.org 
 
 12 12  0  0  0  0  0  0  0  0999 V2000 
   -0.7674    1.1510    0.0008 C   0  0  0  0  0  0  0  0  0  0  0  0 
   -1.4245   -0.0772   -0.0652 C   0  0  0  0  0  0  0  0  0  0  0  0 
    0.6248    1.1677    0.0709 C   0  0  0  0  0  0  0  0  0  0  0  0 
    0.7407   -1.1204    0.0144 C   0  0  0  0  0  0  0  0  0  0  0  0 
   -0.6552   -1.2413   -0.0585 C   0  0  0  0  0  0  0  0  0  0  0  0 
    1.3693    0.0530    0.0779 N   0  0  0  0  0  0  0  0  0  0  0  0 
   -1.1790   -2.5002   -0.1187 O   0  0  0  0  0  0  0  0  0  0  0  0 
   -1.3307    2.0797   -0.0024 H   0  0  0  0  0  0  0  0  0  0  0  0 
   -2.5106   -0.1302   -0.1211 H   0  0  0  0  0  0  0  0  0  0  0  0 
    1.1667    2.1096    0.1236 H   0  0  0  0  0  0  0  0  0  0  0  0 
    1.3509   -2.0215    0.0200 H   0  0  0  0  0  0  0  0  0  0  0  0 
   -2.1463   -2.4423   -0.1643 H   0  0  0  0  0  0  0  0  0  0  0  0 
  1  3  2  0  0  0  0 
  2  5  2  0  0  0  0 
  2  1  1  0  0  0  0 
  3  6  1  0  0  0  0 
  3 10  1  0  0  0  0 
  4 11  1  0  0  0  0 
  4  6  2  0  0  0  0 
  5  4  1  0  0  0  0 
  7  5  1  0  0  0  0 
  8  1  1  0  0  0  0 
  9  2  1  0  0  0  0 
 12  7  1  0  0  0  0 
M  END 
>  <HBA> 
2 
 
>  <HBD> 
1 
 
>  <TPSA> 
33.12 
 
>  <cid> 
7971 
 
>  <dipole> 
3.5 
 
>  <excitation_energy_1> 
4.834 
 
>  <excitation_energy_2> 
5.017 
 
>  <excitation_energy_3> 
5.439 
 
>  <excitation_energy_4> 
5.48 
 
>  <homo_energy> 
-6.373 
 
>  <homo_lumo_gap> 
5.766 
 
>  <logP> 
0.787 
 
>  <lumo_energy> 
-0.607 
 
>  <melting_point> 
58.79 
 
>  <molecular_refractivity> 
26.26 
 
>  <oscillator_strength_1> 
0.0041 
 
>  <oscillator_strength_2> 
0.0713 
 
>  <oscillator_strength_3> 
0.0 
 
>  <oscillator_strength_4> 
0.0001 
 
>  <open_babel_can_smiles> 
Oc1cccnc1 
 
>  <mulliken_charges> 
12 
1   -0.140816 
2   -0.162901 
3   0.029122 
4   0.014594 
5   0.331535 
6   -0.40752 
7   -0.637359 
8   0.139025 
9   0.132271 
10   0.139807 
11   0.152805 
12   0.409437 
 
>  <lowdin_charges> 
12 
1   -0.164448 
2   -0.186092 
3   -0.111726 
4   -0.116418 
5   0.082853 
6   -0.136276 
7   -0.369667 
8   0.165385 
9   0.156437 
10   0.157032 
11   0.165475 
12   0.357444 
 
$$$$ 
 
