PCCDB-ID:  33631 
public computational chemistry database (PCCDB) project, http://pccdb.org 
 
 29 29  0  0  0  0  0  0  0  0999 V2000 
    0.9058    1.3257   -0.4762 C   0  0  0  0  0  0  0  0  0  0  0  0 
    1.5469   -0.0051   -0.0524 C   0  0  0  0  0  0  0  0  0  0  0  0 
   -0.5136    1.4737    0.0923 C   0  0  0  0  0  0  0  0  0  0  0  0 
    0.6535   -1.1986   -0.4294 C   0  0  0  0  0  0  0  0  0  0  0  0 
   -1.3947    0.2694   -0.2763 C   0  0  0  0  0  0  0  0  0  0  0  0 
   -1.8921   -1.5337    3.7758 C   0  0  0  0  0  0  0  0  0  0  0  0 
   -2.0353   -1.5236    2.2468 C   0  0  0  0  0  0  0  0  0  0  0  0 
   -0.7753   -1.0824    0.1330 C   0  0  0  0  0  0  0  0  0  0  0  0 
   -1.4286   -0.2058    4.3935 C   0  0  0  0  0  0  0  0  0  0  0  0 
   -0.7364   -1.2477    1.6063 N   0  0  0  0  0  0  0  0  0  0  0  0 
   -1.8286    0.1855    5.4650 O   0  0  0  0  0  0  0  0  0  0  0  0 
   -0.5172    0.4786    3.6777 O   0  0  0  0  0  0  0  0  0  0  0  0 
    0.8618    1.3693   -1.5750 H   0  0  0  0  0  0  0  0  0  0  0  0 
    1.5325    2.1667   -0.1553 H   0  0  0  0  0  0  0  0  0  0  0  0 
    1.7202    0.0016    1.0317 H   0  0  0  0  0  0  0  0  0  0  0  0 
    2.5306   -0.1217   -0.5240 H   0  0  0  0  0  0  0  0  0  0  0  0 
   -0.9780    2.3932   -0.2849 H   0  0  0  0  0  0  0  0  0  0  0  0 
   -0.4671    1.5776    1.1832 H   0  0  0  0  0  0  0  0  0  0  0  0 
    1.1084   -2.1437   -0.0988 H   0  0  0  0  0  0  0  0  0  0  0  0 
    0.5779   -1.2632   -1.5233 H   0  0  0  0  0  0  0  0  0  0  0  0 
   -1.5382    0.2420   -1.3656 H   0  0  0  0  0  0  0  0  0  0  0  0 
   -2.3965    0.3830    0.1551 H   0  0  0  0  0  0  0  0  0  0  0  0 
   -1.1700   -2.3093    4.0728 H   0  0  0  0  0  0  0  0  0  0  0  0 
   -2.8425   -1.7948    4.2475 H   0  0  0  0  0  0  0  0  0  0  0  0 
   -2.7339   -0.7340    1.9530 H   0  0  0  0  0  0  0  0  0  0  0  0 
   -2.4685   -2.4771    1.9030 H   0  0  0  0  0  0  0  0  0  0  0  0 
   -1.3881   -1.8901   -0.3051 H   0  0  0  0  0  0  0  0  0  0  0  0 
   -0.1104   -2.0261    1.8183 H   0  0  0  0  0  0  0  0  0  0  0  0 
   -0.3589   -0.0092    2.8180 H   0  0  0  0  0  0  0  0  0  0  0  0 
  1 14  1  0  0  0  0 
  1  2  1  0  0  0  0 
  1  3  1  0  0  0  0 
  2 15  1  0  0  0  0 
  3 18  1  0  0  0  0 
  4 19  1  0  0  0  0 
  4  2  1  0  0  0  0 
  4  8  1  0  0  0  0 
  5  3  1  0  0  0  0 
  5  8  1  0  0  0  0 
  5 22  1  0  0  0  0 
  6 23  1  0  0  0  0 
  6 24  1  0  0  0  0 
  6  9  1  0  0  0  0 
  7  6  1  0  0  0  0 
  8 10  1  0  0  0  0 
  9 11  2  0  0  0  0 
 10 28  1  0  0  0  0 
 10  7  1  0  0  0  0 
 12  9  1  0  0  0  0 
 13  1  1  0  0  0  0 
 16  2  1  0  0  0  0 
 17  3  1  0  0  0  0 
 20  4  1  0  0  0  0 
 21  5  1  0  0  0  0 
 25  7  1  0  0  0  0 
 26  7  1  0  0  0  0 
 27  8  1  0  0  0  0 
 29 12  1  0  0  0  0 
M  END 
>  <HBA> 
3 
 
>  <HBD> 
2 
 
>  <TPSA> 
49.33 
 
>  <cid> 
33631 
 
>  <dipole> 
6.31 
 
>  <excitation_energy_1> 
5.565 
 
>  <excitation_energy_2> 
5.935 
 
>  <excitation_energy_3> 
6.346 
 
>  <excitation_energy_4> 
6.526 
 
>  <homo_energy> 
-6.746 
 
>  <homo_lumo_gap> 
7.456 
 
>  <logP> 
1.774 
 
>  <lumo_energy> 
0.71 
 
>  <melting_point> 
98.36 
 
>  <molecular_refractivity> 
47.84 
 
>  <oscillator_strength_1> 
0.0014 
 
>  <oscillator_strength_2> 
0.008 
 
>  <oscillator_strength_3> 
0.0022 
 
>  <oscillator_strength_4> 
0.0255 
 
>  <open_babel_can_smiles> 
OC(=O)CCNC1CCCCC1 
 
>  <mulliken_charges> 
29 
1   -0.259787 
2   -0.257077 
3   -0.268079 
4   -0.290328 
5   -0.272604 
6   -0.389299 
7   -0.144009 
8   0.059539 
9   0.585384 
10   -0.620534 
11   -0.459084 
12   -0.603982 
13   0.126517 
14   0.139831 
15   0.142871 
16   0.13609 
17   0.136472 
18   0.157229 
19   0.127203 
20   0.141509 
21   0.136091 
22   0.139162 
23   0.165663 
24   0.181115 
25   0.170808 
26   0.141141 
27   0.114562 
28   0.310991 
29   0.452603 
 
>  <lowdin_charges> 
29 
1   -0.275479 
2   -0.277507 
3   -0.281014 
4   -0.281705 
5   -0.28214 
6   -0.325077 
7   -0.210098 
8   -0.064837 
9   0.182909 
10   -0.35807 
11   -0.259725 
12   -0.382688 
13   0.134259 
14   0.149364 
15   0.142137 
16   0.146286 
17   0.148278 
18   0.149195 
19   0.14007 
20   0.146434 
21   0.143982 
22   0.145252 
23   0.164197 
24   0.176428 
25   0.15631 
26   0.137585 
27   0.12795 
28   0.26046 
29   0.347242 
 
$$$$ 
 
