PCCDB-ID:  36332 
public computational chemistry database (PCCDB) project, http://pccdb.org 
 
 25 25  0  0  0  0  0  0  0  0999 V2000 
    1.3186   -0.1386    0.8781 C   0  0  0  0  0  0  0  0  0  0  0  0 
    6.2321   -0.9842   -1.4683 C   0  0  0  0  0  0  0  0  0  0  0  0 
    1.7866   -0.9628   -0.3352 C   0  0  0  0  0  0  0  0  0  0  0  0 
    3.0005   -4.4956    0.5039 C   0  0  0  0  0  0  0  0  0  0  0  0 
    4.3354   -4.2688    0.8333 C   0  0  0  0  0  0  0  0  0  0  0  0 
    2.1987   -3.4196    0.1162 C   0  0  0  0  0  0  0  0  0  0  0  0 
    4.8578   -2.9774    0.7606 C   0  0  0  0  0  0  0  0  0  0  0  0 
    5.5118   -0.2085   -0.3864 C   0  0  0  0  0  0  0  0  0  0  0  0 
    2.6934   -2.1140    0.0469 C   0  0  0  0  0  0  0  0  0  0  0  0 
    4.0558   -1.8966    0.3598 C   0  0  0  0  0  0  0  0  0  0  0  0 
    4.5564   -0.5824    0.3593 N   0  0  0  0  0  0  0  0  0  0  0  0 
    5.9429    1.0756   -0.2169 O   0  0  0  0  0  0  0  0  0  0  0  0 
    0.6512    0.6718    0.5619 H   0  0  0  0  0  0  0  0  0  0  0  0 
    2.1763    0.3028    1.3937 H   0  0  0  0  0  0  0  0  0  0  0  0 
    0.7753   -0.7684    1.5918 H   0  0  0  0  0  0  0  0  0  0  0  0 
    5.7979   -1.9760   -1.5977 H   0  0  0  0  0  0  0  0  0  0  0  0 
    7.2950   -1.0992   -1.2217 H   0  0  0  0  0  0  0  0  0  0  0  0 
    6.1679   -0.4433   -2.4214 H   0  0  0  0  0  0  0  0  0  0  0  0 
    2.3039   -0.2969   -1.0360 H   0  0  0  0  0  0  0  0  0  0  0  0 
    0.9125   -1.3610   -0.8658 H   0  0  0  0  0  0  0  0  0  0  0  0 
    2.5823   -5.4973    0.5534 H   0  0  0  0  0  0  0  0  0  0  0  0 
    4.9732   -5.0906    1.1484 H   0  0  0  0  0  0  0  0  0  0  0  0 
    1.1551   -3.5938   -0.1383 H   0  0  0  0  0  0  0  0  0  0  0  0 
    5.8908   -2.7869    1.0402 H   0  0  0  0  0  0  0  0  0  0  0  0 
    6.6398    1.2660   -0.8634 H   0  0  0  0  0  0  0  0  0  0  0  0 
  1 14  1  0  0  0  0 
  1 15  1  0  0  0  0 
  2 17  1  0  0  0  0 
  2  8  1  0  0  0  0 
  3  9  1  0  0  0  0 
  3  1  1  0  0  0  0 
  4 21  1  0  0  0  0 
  4  5  2  0  0  0  0 
  5 22  1  0  0  0  0 
  6  4  1  0  0  0  0 
  7  5  1  0  0  0  0 
  7 24  1  0  0  0  0 
  8 12  1  0  0  0  0 
  8 11  2  0  0  0  0 
  9  6  2  0  0  0  0 
  9 10  1  0  0  0  0 
 10  7  2  0  0  0  0 
 11 10  1  0  0  0  0 
 13  1  1  0  0  0  0 
 16  2  1  0  0  0  0 
 18  2  1  0  0  0  0 
 19  3  1  0  0  0  0 
 20  3  1  0  0  0  0 
 23  6  1  0  0  0  0 
 25 12  1  0  0  0  0 
M  END 
>  <HBA> 
2 
 
>  <HBD> 
1 
 
>  <TPSA> 
29.1 
 
>  <cid> 
36332 
 
>  <dipole> 
3.73 
 
>  <excitation_energy_1> 
4.658 
 
>  <excitation_energy_2> 
4.851 
 
>  <excitation_energy_3> 
4.907 
 
>  <excitation_energy_4> 
5.494 
 
>  <homo_energy> 
-5.649 
 
>  <homo_lumo_gap> 
5.562 
 
>  <logP> 
2.28 
 
>  <lumo_energy> 
-0.087 
 
>  <melting_point> 
62.77 
 
>  <molecular_refractivity> 
50.53 
 
>  <oscillator_strength_1> 
0.0891 
 
>  <oscillator_strength_2> 
0.0023 
 
>  <oscillator_strength_3> 
0.024 
 
>  <oscillator_strength_4> 
0.0119 
 
>  <open_babel_can_smiles> 
CCc1ccccc1/N=C(/O)\C 
 
>  <mulliken_charges> 
25 
1   -0.442092 
2   -0.555317 
3   -0.324737 
4   -0.124518 
5   -0.143036 
6   -0.205127 
7   -0.15282 
8   0.483008 
9   0.156495 
10   0.179632 
11   -0.468858 
12   -0.570624 
13   0.134982 
14   0.178207 
15   0.140783 
16   0.200671 
17   0.175941 
18   0.169929 
19   0.140726 
20   0.13172 
21   0.121934 
22   0.124053 
23   0.120215 
24   0.120977 
25   0.407853 
 
>  <lowdin_charges> 
25 
1   -0.446085 
2   -0.481684 
3   -0.271323 
4   -0.171381 
5   -0.161394 
6   -0.162408 
7   -0.186501 
8   0.146297 
9   -0.0175 
10   0.037206 
11   -0.171481 
12   -0.362326 
13   0.146315 
14   0.164862 
15   0.147684 
16   0.184967 
17   0.168782 
18   0.167257 
19   0.151086 
20   0.144481 
21   0.154423 
22   0.156388 
23   0.151854 
24   0.153553 
25   0.35693 
 
$$$$ 
 
