PCCDB-ID:  48723 
public computational chemistry database (PCCDB) project, http://pccdb.org 
 
 37 37  0  0  1  0  0  0  0  0999 V2000 
    2.5599    2.9827    0.6227 C   0  0  0  0  0  0  0  0  0  0  0  0 
    0.7962    0.1480   -2.3400 C   0  0  0  0  0  0  0  0  0  0  0  0 
    7.7046    2.5388   -3.1362 C   0  0  0  0  0  0  0  0  0  0  0  0 
    2.2505    2.5777   -0.8234 C   0  0  0  0  0  0  0  0  0  0  0  0 
    2.2141    0.6911   -2.5598 C   0  0  0  0  0  0  0  0  0  0  0  0 
    6.7661    1.8357   -2.1510 C   0  0  0  0  0  0  0  0  0  0  0  0 
    4.4333    1.2360   -1.3359 C   0  0  0  0  0  0  0  0  0  0  0  0 
    2.8799    1.2393   -1.2757 C   0  0  0  0  0  0  0  0  0  0  0  0 
    4.9287    3.5232   -2.4172 C   0  0  0  0  0  0  0  0  0  0  0  0 
    4.9442    1.5298   -3.8464 C   0  0  0  0  0  0  0  0  0  0  0  0 
    4.2281    3.5952   -4.6312 C   0  0  0  0  0  0  0  0  0  0  0  0 
    5.2310    2.0288   -2.4324 C   0  0  1  0  0  0  0  0  0  0  0  0 
    4.4989    4.2248   -3.3880 N   0  0  0  0  0  0  0  0  0  0  0  0 
    4.5268    2.2220   -4.8289 N   0  0  0  0  0  0  0  0  0  0  0  0 
    5.1873    4.1812   -1.2630 O   0  0  0  0  0  0  0  0  0  0  0  0 
    5.2141    0.2268   -4.0969 O   0  0  0  0  0  0  0  0  0  0  0  0 
    3.7433    4.2384   -5.5343 O   0  0  0  0  0  0  0  0  0  0  0  0 
    2.0297    3.9037    0.8868 H   0  0  0  0  0  0  0  0  0  0  0  0 
    3.6256    3.1750    0.7918 H   0  0  0  0  0  0  0  0  0  0  0  0 
    2.2478    2.2030    1.3286 H   0  0  0  0  0  0  0  0  0  0  0  0 
    0.3933   -0.2588   -3.2735 H   0  0  0  0  0  0  0  0  0  0  0  0 
    0.1021    0.9227   -1.9969 H   0  0  0  0  0  0  0  0  0  0  0  0 
    0.7916   -0.6574   -1.5948 H   0  0  0  0  0  0  0  0  0  0  0  0 
    8.7463    2.3436   -2.8618 H   0  0  0  0  0  0  0  0  0  0  0  0 
    7.5544    3.6231   -3.1309 H   0  0  0  0  0  0  0  0  0  0  0  0 
    7.5555    2.1820   -4.1603 H   0  0  0  0  0  0  0  0  0  0  0  0 
    2.5314    3.3859   -1.5078 H   0  0  0  0  0  0  0  0  0  0  0  0 
    1.1627    2.4810   -0.9183 H   0  0  0  0  0  0  0  0  0  0  0  0 
    2.1871    1.4709   -3.3302 H   0  0  0  0  0  0  0  0  0  0  0  0 
    2.8293   -0.1180   -2.9730 H   0  0  0  0  0  0  0  0  0  0  0  0 
    6.9767    2.1813   -1.1305 H   0  0  0  0  0  0  0  0  0  0  0  0 
    6.9833    0.7597   -2.1354 H   0  0  0  0  0  0  0  0  0  0  0  0 
    4.7535    0.1865   -1.4088 H   0  0  0  0  0  0  0  0  0  0  0  0 
    4.8173    1.5582   -0.3584 H   0  0  0  0  0  0  0  0  0  0  0  0 
    2.6600    0.5110   -0.4779 H   0  0  0  0  0  0  0  0  0  0  0  0 
    5.4753    3.5580   -0.5783 H   0  0  0  0  0  0  0  0  0  0  0  0 
    5.4975   -0.2207   -3.2845 H   0  0  0  0  0  0  0  0  0  0  0  0 
  1 19  1  0  0  0  0 
  1 18  1  0  0  0  0 
  1 20  1  0  0  0  0 
  2 22  1  0  0  0  0 
  2 23  1  0  0  0  0 
  3 25  1  0  0  0  0 
  3 24  1  0  0  0  0 
  3  6  1  0  0  0  0 
  4  1  1  0  0  0  0 
  5  2  1  0  0  0  0 
  5  8  1  0  0  0  0 
  6 32  1  0  0  0  0 
  6 31  1  0  0  0  0 
  7  8  1  0  0  0  0 
  7 34  1  0  0  0  0 
  8  4  1  0  0  0  0 
  8 35  1  0  0  0  0 
  9 15  1  0  0  0  0 
 10 12  1  0  0  0  0 
 11 13  2  0  0  0  0 
 12  9  1  0  0  0  0 
 12  6  1  1  0  0  0 
 12  7  1  0  0  0  0 
 13  9  2  0  0  0  0 
 14 11  1  0  0  0  0 
 14 10  2  0  0  0  0 
 15 36  1  0  0  0  0 
 16 10  1  0  0  0  0 
 16 37  1  0  0  0  0 
 17 11  2  0  0  0  0 
 21  2  1  0  0  0  0 
 26  3  1  0  0  0  0 
 27  4  1  0  0  0  0 
 28  4  1  0  0  0  0 
 29  5  1  0  0  0  0 
 30  5  1  0  0  0  0 
 33  7  1  0  0  0  0 
M  END 
>  <HBA> 
5 
 
>  <HBD> 
2 
 
>  <TPSA> 
75.27 
 
>  <cid> 
48723 
 
>  <dipole> 
9.52 
 
>  <excitation_energy_1> 
3.989 
 
>  <excitation_energy_2> 
4.161 
 
>  <excitation_energy_3> 
5.206 
 
>  <excitation_energy_4> 
5.471 
 
>  <homo_energy> 
-6.882 
 
>  <homo_lumo_gap> 
5.372 
 
>  <logP> 
2.233 
 
>  <lumo_energy> 
-1.51 
 
>  <melting_point> 
139.58 
 
>  <molecular_refractivity> 
71.85 
 
>  <oscillator_strength_1> 
0.0 
 
>  <oscillator_strength_2> 
0.0 
 
>  <oscillator_strength_3> 
0.0002 
 
>  <oscillator_strength_4> 
0.0032 
 
>  <open_babel_can_smiles> 
CCC(C[C@@]1(CC)C(=N[C](=[N]=C1O)=O)O)CC 
 
>  <mulliken_charges> 
37 
1   -0.444536 
2   -0.453584 
3   -0.471332 
4   -0.283632 
5   -0.279091 
6   -0.27182 
7   -0.301727 
8   -0.058587 
9   0.564336 
10   0.560145 
11   0.615218 
12   -0.145254 
13   -0.475522 
14   -0.471817 
15   -0.585377 
16   -0.583019 
17   -0.432662 
18   0.161253 
19   0.118061 
20   0.143834 
21   0.157228 
22   0.153109 
23   0.139815 
24   0.161384 
25   0.182434 
26   0.183138 
27   0.171879 
28   0.148353 
29   0.16185 
30   0.134128 
31   0.140411 
32   0.139139 
33   0.128484 
34   0.132682 
35   0.125541 
36   0.418768 
37   0.41677 
 
>  <lowdin_charges> 
37 
1   -0.444125 
2   -0.446451 
3   -0.450551 
4   -0.286093 
5   -0.286373 
6   -0.265244 
7   -0.276411 
8   -0.12797 
9   0.149744 
10   0.15317 
11   0.173131 
12   -0.065605 
13   -0.189034 
14   -0.187264 
15   -0.332072 
16   -0.333137 
17   -0.21113 
18   0.161119 
19   0.131172 
20   0.147832 
21   0.158616 
22   0.15118 
23   0.14547 
24   0.161705 
25   0.165609 
26   0.166872 
27   0.15945 
28   0.150484 
29   0.155863 
30   0.143851 
31   0.1434 
32   0.14246 
33   0.140992 
34   0.143942 
35   0.142292 
36   0.357077 
37   0.356025 
 
$$$$ 
 
