PCCDB-ID:  22386 
public computational chemistry database (PCCDB) project, http://pccdb.org 
 
 18 17  0  0  1  0  0  0  0  0999 V2000 
    1.0244   -0.1518   -0.0256 C   0  0  0  0  0  0  0  0  0  0  0  0 
    5.2157    1.4388    2.4216 C   0  0  0  0  0  0  0  0  0  0  0  0 
    2.5558   -0.1290   -0.0081 C   0  0  0  0  0  0  0  0  0  0  0  0 
    3.1336    0.6297    1.1924 C   0  0  0  0  0  0  0  0  0  0  0  0 
    4.6677    0.6115    1.2568 C   0  0  2  0  0  0  0  0  0  0  0  0 
    5.1767   -0.7267    1.2981 O   0  0  0  0  0  0  0  0  0  0  0  0 
    0.6441   -0.7018   -0.8939 H   0  0  0  0  0  0  0  0  0  0  0  0 
    0.6092    0.8630   -0.0670 H   0  0  0  0  0  0  0  0  0  0  0  0 
    0.6237   -0.6347    0.8746 H   0  0  0  0  0  0  0  0  0  0  0  0 
    4.9236    2.4922    2.3366 H   0  0  0  0  0  0  0  0  0  0  0  0 
    6.3085    1.3815    2.4470 H   0  0  0  0  0  0  0  0  0  0  0  0 
    4.8310    1.0639    3.3802 H   0  0  0  0  0  0  0  0  0  0  0  0 
    2.9269    0.3314   -0.9349 H   0  0  0  0  0  0  0  0  0  0  0  0 
    2.9483   -1.1524    0.0004 H   0  0  0  0  0  0  0  0  0  0  0  0 
    2.7394    0.1978    2.1274 H   0  0  0  0  0  0  0  0  0  0  0  0 
    2.7909    1.6745    1.1748 H   0  0  0  0  0  0  0  0  0  0  0  0 
    5.0646    1.0143    0.3162 H   0  0  0  0  0  0  0  0  0  0  0  0 
    4.8644   -1.1243    2.1277 H   0  0  0  0  0  0  0  0  0  0  0  0 
  1  3  1  0  0  0  0 
  1  9  1  0  0  0  0 
  2 11  1  0  0  0  0 
  2 12  1  0  0  0  0 
  3 14  1  0  0  0  0 
  3  4  1  0  0  0  0 
  4  5  1  0  0  0  0 
  4 15  1  0  0  0  0 
  5 17  1  6  0  0  0 
  5  6  1  0  0  0  0 
  5  2  1  0  0  0  0 
  6 18  1  0  0  0  0 
  7  1  1  0  0  0  0 
  8  1  1  0  0  0  0 
 10  2  1  0  0  0  0 
 13  3  1  0  0  0  0 
 16  4  1  0  0  0  0 
M  END 
>  <HBA> 
1 
 
>  <HBD> 
1 
 
>  <TPSA> 
20.23 
 
>  <cid> 
22386 
 
>  <dipole> 
1.51 
 
>  <excitation_energy_1> 
6.644 
 
>  <excitation_energy_2> 
7.177 
 
>  <excitation_energy_3> 
7.412 
 
>  <excitation_energy_4> 
7.474 
 
>  <homo_energy> 
-7.089 
 
>  <homo_lumo_gap> 
9.061 
 
>  <logP> 
1.167 
 
>  <lumo_energy> 
1.973 
 
>  <melting_point> 
-7.28 
 
>  <molecular_refractivity> 
27.31 
 
>  <oscillator_strength_1> 
0.0228 
 
>  <oscillator_strength_2> 
0.0083 
 
>  <oscillator_strength_3> 
0.0019 
 
>  <oscillator_strength_4> 
0.0019 
 
>  <open_babel_can_smiles> 
CCC[C@H](O)C 
 
>  <mulliken_charges> 
18 
1   -0.442723 
2   -0.456908 
3   -0.245143 
4   -0.260848 
5   0.137543 
6   -0.618243 
7   0.143346 
8   0.13936 
9   0.138649 
10   0.142843 
11   0.157877 
12   0.1305 
13   0.130048 
14   0.148386 
15   0.113317 
16   0.127847 
17   0.134487 
18   0.379662 
 
>  <lowdin_charges> 
18 
1   -0.445158 
2   -0.456751 
3   -0.273393 
4   -0.290952 
5   0.002249 
6   -0.466336 
7   0.150706 
8   0.144143 
9   0.145264 
10   0.151544 
11   0.156013 
12   0.142623 
13   0.140206 
14   0.147673 
15   0.132337 
16   0.141773 
17   0.141677 
18   0.336382 
 
$$$$ 
 
