PCCDB-ID:  66882 
public computational chemistry database (PCCDB) project, http://pccdb.org 
 
 22 22  0  0  0  0  0  0  0  0999 V2000 
    1.9917   -0.4099    2.5327 C   0  0  0  0  0  0  0  0  0  0  0  0 
    2.7568   -3.3712    0.5280 C   0  0  0  0  0  0  0  0  0  0  0  0 
    2.2380   -4.6685    0.5841 C   0  0  0  0  0  0  0  0  0  0  0  0 
    0.5351   -2.5380    0.0609 C   0  0  0  0  0  0  0  0  0  0  0  0 
    2.4483   -0.1821    1.1078 C   0  0  0  0  0  0  0  0  0  0  0  0 
    1.9012   -2.2939    0.2713 C   0  0  0  0  0  0  0  0  0  0  0  0 
    0.0077   -3.8322    0.1149 C   0  0  0  0  0  0  0  0  0  0  0  0 
    0.8840   -4.9040    0.3816 C   0  0  0  0  0  0  0  0  0  0  0  0 
   -1.3586   -4.0873   -0.0350 N   0  0  0  0  0  0  0  0  0  0  0  0 
    2.4159   -0.9871    0.1305 N   0  0  0  0  0  0  0  0  0  0  0  0 
    2.9613    1.0594    0.8581 O   0  0  0  0  0  0  0  0  0  0  0  0 
    0.3100   -6.1607    0.4096 O   0  0  0  0  0  0  0  0  0  0  0  0 
    1.1992    0.3013    2.7981 H   0  0  0  0  0  0  0  0  0  0  0  0 
    2.8254   -0.2543    3.2293 H   0  0  0  0  0  0  0  0  0  0  0  0 
    1.6096   -1.4227    2.6638 H   0  0  0  0  0  0  0  0  0  0  0  0 
    3.8182   -3.1945    0.6677 H   0  0  0  0  0  0  0  0  0  0  0  0 
    2.9027   -5.5083    0.7824 H   0  0  0  0  0  0  0  0  0  0  0  0 
   -0.1236   -1.7010   -0.1571 H   0  0  0  0  0  0  0  0  0  0  0  0 
   -1.8430   -3.4269   -0.6305 H   0  0  0  0  0  0  0  0  0  0  0  0 
   -1.5617   -5.0464   -0.2901 H   0  0  0  0  0  0  0  0  0  0  0  0 
    2.9384    1.5817    1.6743 H   0  0  0  0  0  0  0  0  0  0  0  0 
    1.0108   -6.8189    0.5294 H   0  0  0  0  0  0  0  0  0  0  0  0 
  1 15  1  0  0  0  0 
  1 13  1  0  0  0  0 
  1 14  1  0  0  0  0 
  2  3  1  0  0  0  0 
  2 16  1  0  0  0  0 
  3 17  1  0  0  0  0 
  4  7  2  0  0  0  0 
  4  6  1  0  0  0  0 
  5  1  1  0  0  0  0 
  6  2  2  0  0  0  0 
  7  8  1  0  0  0  0 
  8 12  1  0  0  0  0 
  8  3  2  0  0  0  0 
  9  7  1  0  0  0  0 
 10  6  1  0  0  0  0 
 10  5  2  0  0  0  0 
 11  5  1  0  0  0  0 
 11 21  1  0  0  0  0 
 12 22  1  0  0  0  0 
 18  4  1  0  0  0  0 
 19  9  1  0  0  0  0 
 20  9  1  0  0  0  0 
M  END 
>  <HBA> 
4 
 
>  <HBD> 
3 
 
>  <TPSA> 
75.35 
 
>  <cid> 
66882 
 
>  <dipole> 
2.5 
 
>  <excitation_energy_1> 
4.246 
 
>  <excitation_energy_2> 
4.373 
 
>  <excitation_energy_3> 
4.424 
 
>  <excitation_energy_4> 
4.679 
 
>  <homo_energy> 
-4.871 
 
>  <homo_lumo_gap> 
5.206 
 
>  <logP> 
1.587 
 
>  <lumo_energy> 
0.335 
 
>  <melting_point> 
149.73 
 
>  <molecular_refractivity> 
47.18 
 
>  <oscillator_strength_1> 
0.0204 
 
>  <oscillator_strength_2> 
0.0165 
 
>  <oscillator_strength_3> 
0.0155 
 
>  <oscillator_strength_4> 
0.0338 
 
>  <open_babel_can_smiles> 
C/C(=N\c1ccc(c(c1)N)O)/O 
 
>  <mulliken_charges> 
22 
1   -0.554549 
2   -0.173676 
3   -0.202754 
4   -0.220479 
5   0.484021 
6   0.220294 
7   0.281601 
8   0.307829 
9   -0.79366 
10   -0.460297 
11   -0.574215 
12   -0.673987 
13   0.17177 
14   0.169706 
15   0.202422 
16   0.121359 
17   0.112723 
18   0.114703 
19   0.316579 
20   0.336642 
21   0.406372 
22   0.407594 
 
>  <lowdin_charges> 
22 
1   -0.484071 
2   -0.202117 
3   -0.201652 
4   -0.22189 
5   0.145711 
6   0.042239 
7   0.04022 
8   0.055569 
9   -0.490594 
10   -0.172595 
11   -0.366065 
12   -0.405108 
13   0.169025 
14   0.167813 
15   0.185743 
16   0.157192 
17   0.151916 
18   0.156756 
19   0.27553 
20   0.281906 
21   0.355251 
22   0.35922 
 
$$$$ 
 
