PCCDB-ID:  26050 
public computational chemistry database (PCCDB) project, http://pccdb.org 
 
 27 27  0  0  0  0  0  0  0  0999 V2000 
    2.6610    2.5480    2.0882 C   0  0  0  0  0  0  0  0  0  0  0  0 
    3.8672    1.3050    3.7475 C   0  0  0  0  0  0  0  0  0  0  0  0 
    5.1428   -5.6134    0.0608 C   0  0  0  0  0  0  0  0  0  0  0  0 
    5.8991   -4.5542    0.5567 C   0  0  0  0  0  0  0  0  0  0  0  0 
    3.7608   -5.4529   -0.0898 C   0  0  0  0  0  0  0  0  0  0  0  0 
    5.2972   -3.3403    0.9045 C   0  0  0  0  0  0  0  0  0  0  0  0 
    3.1473   -4.2533    0.2522 C   0  0  0  0  0  0  0  0  0  0  0  0 
    2.8920    0.1564    1.8408 C   0  0  0  0  0  0  0  0  0  0  0  0 
    3.9257   -0.9427    1.6017 C   0  0  0  0  0  0  0  0  0  0  0  0 
    3.9139   -3.1896    0.7516 C   0  0  0  0  0  0  0  0  0  0  0  0 
    3.5058    1.3862    2.3365 N   0  0  0  0  0  0  0  0  0  0  0  0 
    3.2192   -2.0533    1.0572 O   0  0  0  0  0  0  0  0  0  0  0  0 
    3.1816    3.4545    2.4163 H   0  0  0  0  0  0  0  0  0  0  0  0 
    1.6880    2.5051    2.6164 H   0  0  0  0  0  0  0  0  0  0  0  0 
    2.4626    2.6412    1.0153 H   0  0  0  0  0  0  0  0  0  0  0  0 
    4.3858    2.2227    4.0447 H   0  0  0  0  0  0  0  0  0  0  0  0 
    4.5494    0.4683    3.9238 H   0  0  0  0  0  0  0  0  0  0  0  0 
    2.9894    1.1754    4.4115 H   0  0  0  0  0  0  0  0  0  0  0  0 
    5.6196   -6.5524   -0.2051 H   0  0  0  0  0  0  0  0  0  0  0  0 
    6.9737   -4.6631    0.6796 H   0  0  0  0  0  0  0  0  0  0  0  0 
    3.1559   -6.2697   -0.4751 H   0  0  0  0  0  0  0  0  0  0  0  0 
    5.9077   -2.5296    1.2855 H   0  0  0  0  0  0  0  0  0  0  0  0 
    2.0763   -4.1123    0.1434 H   0  0  0  0  0  0  0  0  0  0  0  0 
    2.1002   -0.2262    2.5131 H   0  0  0  0  0  0  0  0  0  0  0  0 
    2.4144    0.3701    0.8786 H   0  0  0  0  0  0  0  0  0  0  0  0 
    4.4266   -1.2414    2.5327 H   0  0  0  0  0  0  0  0  0  0  0  0 
    4.6911   -0.5832    0.9014 H   0  0  0  0  0  0  0  0  0  0  0  0 
  1 11  1  0  0  0  0 
  1 13  1  0  0  0  0 
  1 14  1  0  0  0  0 
  2 17  1  0  0  0  0 
  2 16  1  0  0  0  0 
  2 18  1  0  0  0  0 
  3  4  1  0  0  0  0 
  4 20  1  0  0  0  0 
  4  6  2  0  0  0  0 
  5  3  2  0  0  0  0 
  5  7  1  0  0  0  0 
  6 22  1  0  0  0  0 
  7 10  2  0  0  0  0 
  8 11  1  0  0  0  0 
  8 24  1  0  0  0  0 
  9  8  1  0  0  0  0 
  9 26  1  0  0  0  0 
 10  6  1  0  0  0  0 
 10 12  1  0  0  0  0 
 11  2  1  0  0  0  0 
 12  9  1  0  0  0  0 
 15  1  1  0  0  0  0 
 19  3  1  0  0  0  0 
 21  5  1  0  0  0  0 
 23  7  1  0  0  0  0 
 25  8  1  0  0  0  0 
 27  9  1  0  0  0  0 
M  END 
>  <HBA> 
2 
 
>  <HBD> 
0 
 
>  <TPSA> 
12.47 
 
>  <cid> 
26050 
 
>  <dipole> 
1.34 
 
>  <excitation_energy_1> 
5.038 
 
>  <excitation_energy_2> 
5.398 
 
>  <excitation_energy_3> 
5.436 
 
>  <excitation_energy_4> 
5.54 
 
>  <homo_energy> 
-5.791 
 
>  <homo_lumo_gap> 
5.924 
 
>  <logP> 
1.627 
 
>  <lumo_energy> 
0.133 
 
>  <melting_point> 
9.06 
 
>  <molecular_refractivity> 
50.25 
 
>  <oscillator_strength_1> 
0.0312 
 
>  <oscillator_strength_2> 
0.0033 
 
>  <oscillator_strength_3> 
0.0139 
 
>  <oscillator_strength_4> 
0.0034 
 
>  <open_babel_can_smiles> 
CN(CCOc1ccccc1)C 
 
>  <mulliken_charges> 
27 
1   -0.29496 
2   -0.303155 
3   -0.133635 
4   -0.137959 
5   -0.132921 
6   -0.195142 
7   -0.175941 
8   -0.138 
9   -0.031237 
10   0.380064 
11   -0.374706 
12   -0.528235 
13   0.149401 
14   0.120856 
15   0.152247 
16   0.152141 
17   0.150844 
18   0.121894 
19   0.123975 
20   0.128099 
21   0.128579 
22   0.133746 
23   0.134384 
24   0.127484 
25   0.152351 
26   0.139124 
27   0.150701 
 
>  <lowdin_charges> 
27 
1   -0.353098 
2   -0.36017 
3   -0.180327 
4   -0.144659 
5   -0.148851 
6   -0.216368 
7   -0.182754 
8   -0.206398 
9   -0.133029 
10   0.103722 
11   -0.184553 
12   -0.202002 
13   0.150693 
14   0.121577 
15   0.149499 
16   0.15244 
17   0.149629 
18   0.123111 
19   0.156194 
20   0.154911 
21   0.158725 
22   0.163393 
23   0.163023 
24   0.128314 
25   0.154036 
26   0.137567 
27   0.145373 
 
$$$$ 
 
