PCCDB-ID:  13818 
public computational chemistry database (PCCDB) project, http://pccdb.org 
 
 10  9  0  0  0  0  0  0  0  0999 V2000 
    0.9721    0.0974   -0.0702 C   0  0  0  0  0  0  0  0  0  0  0  0 
    2.7868   -1.0183    1.5307 O   0  0  0  0  0  0  0  0  0  0  0  0 
    2.7709   -1.6276   -0.9901 O   0  0  0  0  0  0  0  0  0  0  0  0 
    3.7588    0.6593   -0.2106 O   0  0  0  0  0  0  0  0  0  0  0  0 
    2.7119   -0.3659    0.0388 P   0  0  0  0  0  0  0  0  0  0  0  0 
    0.7631    0.8886    0.6541 H   0  0  0  0  0  0  0  0  0  0  0  0 
    0.3370   -0.7660    0.1458 H   0  0  0  0  0  0  0  0  0  0  0  0 
    0.7564    0.4609   -1.0778 H   0  0  0  0  0  0  0  0  0  0  0  0 
    3.6500   -0.8148    1.9286 H   0  0  0  0  0  0  0  0  0  0  0  0 
    3.6524   -1.6757   -1.3972 H   0  0  0  0  0  0  0  0  0  0  0  0 
  1  5  1  0  0  0  0 
  1  7  1  0  0  0  0 
  1  6  1  0  0  0  0 
  2  9  1  0  0  0  0 
  3  5  1  0  0  0  0 
  4  5  2  0  0  0  0 
  5  2  1  0  0  0  0 
  8  1  1  0  0  0  0 
 10  3  1  0  0  0  0 
M  END 
>  <HBA> 
3 
 
>  <HBD> 
2 
 
>  <TPSA> 
67.34 
 
>  <cid> 
13818 
 
>  <dipole> 
1.23 
 
>  <excitation_energy_1> 
6.762 
 
>  <excitation_energy_2> 
6.904 
 
>  <excitation_energy_3> 
7.803 
 
>  <excitation_energy_4> 
7.818 
 
>  <homo_energy> 
-7.84 
 
>  <homo_lumo_gap> 
8.988 
 
>  <logP> 
-0.206 
 
>  <lumo_energy> 
1.148 
 
>  <melting_point> 
63.09 
 
>  <molecular_refractivity> 
17.91 
 
>  <oscillator_strength_1> 
0.0177 
 
>  <oscillator_strength_2> 
0.0599 
 
>  <oscillator_strength_3> 
0.0105 
 
>  <oscillator_strength_4> 
0.0062 
 
>  <open_babel_can_smiles> 
CP(=O)(O)O 
 
>  <mulliken_charges> 
10 
1   -0.652673 
2   -0.6502 
3   -0.648957 
4   -0.561623 
5   1.036898 
6   0.19865 
7   0.204479 
8   0.19922 
9   0.437108 
10   0.437098 
 
>  <lowdin_charges> 
10 
1   -0.627508 
2   -0.583574 
3   -0.579891 
4   -0.608747 
5   1.058385 
6   0.192708 
7   0.195973 
8   0.191678 
9   0.380792 
10   0.380184 
 
$$$$ 
 
