PCCDB-ID:  18745 
public computational chemistry database (PCCDB) project, http://pccdb.org 
 
 22 21  0  0  0  0  0  0  0  0999 V2000 
    0.9282    0.0424    0.0495 C   0  0  0  0  0  0  0  0  0  0  0  0 
    2.9773   -1.3866    0.3773 C   0  0  0  0  0  0  0  0  0  0  0  0 
    4.5824    1.1055    1.2014 C   0  0  0  0  0  0  0  0  0  0  0  0 
    2.5319    2.5328    0.8754 C   0  0  0  0  0  0  0  0  0  0  0  0 
    2.9745    0.4601   -1.2372 C   0  0  0  0  0  0  0  0  0  0  0  0 
    2.5373    0.6857    2.4894 C   0  0  0  0  0  0  0  0  0  0  0  0 
    2.4766    0.0512    0.0913 C   0  0  0  0  0  0  0  0  0  0  0  0 
    3.0340    1.0954    1.1606 C   0  0  0  0  0  0  0  0  0  0  0  0 
    3.3619    0.7735   -2.2863 N   0  0  0  0  0  0  0  0  0  0  0  0 
    2.1507    0.3717    3.5386 N   0  0  0  0  0  0  0  0  0  0  0  0 
    0.5815   -0.7105   -0.6642 H   0  0  0  0  0  0  0  0  0  0  0  0 
    0.5176    1.0069   -0.2571 H   0  0  0  0  0  0  0  0  0  0  0  0 
    0.5332   -0.2120    1.0380 H   0  0  0  0  0  0  0  0  0  0  0  0 
    2.5447   -2.0802   -0.3494 H   0  0  0  0  0  0  0  0  0  0  0  0 
    2.6611   -1.6943    1.3787 H   0  0  0  0  0  0  0  0  0  0  0  0 
    4.0644   -1.4667    0.3095 H   0  0  0  0  0  0  0  0  0  0  0  0 
    4.9289    1.8572    1.9164 H   0  0  0  0  0  0  0  0  0  0  0  0 
    4.9765    1.3623    0.2132 H   0  0  0  0  0  0  0  0  0  0  0  0 
    4.9941    0.1407    1.5057 H   0  0  0  0  0  0  0  0  0  0  0  0 
    2.9657    3.2269    1.6010 H   0  0  0  0  0  0  0  0  0  0  0  0 
    1.4449    2.6124    0.9457 H   0  0  0  0  0  0  0  0  0  0  0  0 
    2.8457    2.8405   -0.1267 H   0  0  0  0  0  0  0  0  0  0  0  0 
  1  7  1  0  0  0  0 
  1 13  1  0  0  0  0 
  2 15  1  0  0  0  0 
  3 19  1  0  0  0  0 
  3 17  1  0  0  0  0 
  4 21  1  0  0  0  0 
  4  8  1  0  0  0  0 
  4 20  1  0  0  0  0 
  5  7  1  0  0  0  0 
  6 10  3  0  0  0  0 
  7  2  1  0  0  0  0 
  7  8  1  0  0  0  0 
  8  3  1  0  0  0  0 
  8  6  1  0  0  0  0 
  9  5  3  0  0  0  0 
 11  1  1  0  0  0  0 
 12  1  1  0  0  0  0 
 14  2  1  0  0  0  0 
 16  2  1  0  0  0  0 
 18  3  1  0  0  0  0 
 22  4  1  0  0  0  0 
M  END 
>  <HBA> 
2 
 
>  <HBD> 
0 
 
>  <TPSA> 
47.58 
 
>  <cid> 
18745 
 
>  <dipole> 
0.0 
 
>  <excitation_energy_1> 
7.366 
 
>  <excitation_energy_2> 
7.51 
 
>  <excitation_energy_3> 
7.609 
 
>  <excitation_energy_4> 
7.768 
 
>  <homo_energy> 
-8.732 
 
>  <homo_lumo_gap> 
8.836 
 
>  <logP> 
2.086 
 
>  <lumo_energy> 
0.103 
 
>  <melting_point> 
77.28 
 
>  <molecular_refractivity> 
39.55 
 
>  <oscillator_strength_1> 
0.0025 
 
>  <oscillator_strength_2> 
0.0 
 
>  <oscillator_strength_3> 
0.0337 
 
>  <oscillator_strength_4> 
0.0 
 
>  <open_babel_can_smiles> 
N#CC(C(C#N)(C)C)(C)C 
 
>  <mulliken_charges> 
22 
1   -0.462641 
2   -0.462612 
3   -0.462706 
4   -0.462629 
5   0.361365 
6   0.361371 
7   0.006396 
8   0.006429 
9   -0.489758 
10   -0.489762 
11   0.169917 
12   0.171045 
13   0.182639 
14   0.16992 
15   0.182703 
16   0.17103 
17   0.169929 
18   0.182701 
19   0.171021 
20   0.169919 
21   0.171067 
22   0.182655 
 
>  <lowdin_charges> 
22 
1   -0.437512 
2   -0.435648 
3   -0.437529 
4   -0.435638 
5   -0.016051 
6   -0.01605 
7   0.015102 
8   0.015108 
9   -0.128623 
10   -0.128626 
11   0.167465 
12   0.164124 
13   0.170646 
14   0.167659 
15   0.170525 
16   0.162314 
17   0.167472 
18   0.170683 
19   0.1641 
20   0.167658 
21   0.16234 
22   0.170484 
 
$$$$ 
 
