PCCDB-ID:  27827 
public computational chemistry database (PCCDB) project, http://pccdb.org 
 
 12 11  0  0  0  0  0  0  0  0999 V2000 
    1.0024    0.3453   -0.5927 C   0  0  0  0  0  0  0  0  0  0  0  0 
    2.2165   -1.9032    1.7341 C   0  0  0  0  0  0  0  0  0  0  0  0 
    0.6396    0.7761    1.7407 N   0  0  0  0  0  0  0  0  0  0  0  0 
    1.1477   -0.0479    0.7986 N   0  0  0  0  0  0  0  0  0  0  0  0 
    0.4183    0.2577    2.8231 O   0  0  0  0  0  0  0  0  0  0  0  0 
    1.0802   -1.4306    0.9914 O   0  0  0  0  0  0  0  0  0  0  0  0 
    0.9235    1.4333   -0.6174 H   0  0  0  0  0  0  0  0  0  0  0  0 
    0.1019   -0.1036   -1.0277 H   0  0  0  0  0  0  0  0  0  0  0  0 
    1.8794    0.0218   -1.1586 H   0  0  0  0  0  0  0  0  0  0  0  0 
    2.1050   -2.9898    1.7454 H   0  0  0  0  0  0  0  0  0  0  0  0 
    2.2010   -1.5135    2.7543 H   0  0  0  0  0  0  0  0  0  0  0  0 
    3.1518   -1.6307    1.2321 H   0  0  0  0  0  0  0  0  0  0  0  0 
  1  4  1  0  0  0  0 
  2 10  1  0  0  0  0 
  2 11  1  0  0  0  0 
  3  5  2  0  0  0  0 
  4  6  1  0  0  0  0 
  4  3  1  0  0  0  0 
  6  2  1  0  0  0  0 
  7  1  1  0  0  0  0 
  8  1  1  0  0  0  0 
  9  1  1  0  0  0  0 
 12  2  1  0  0  0  0 
M  END 
>  <HBA> 
4 
 
>  <HBD> 
0 
 
>  <TPSA> 
41.9 
 
>  <cid> 
27827 
 
>  <dipole> 
3.45 
 
>  <excitation_energy_1> 
3.193 
 
>  <excitation_energy_2> 
5.463 
 
>  <excitation_energy_3> 
5.92 
 
>  <excitation_energy_4> 
5.962 
 
>  <homo_energy> 
-6.237 
 
>  <homo_lumo_gap> 
5.045 
 
>  <logP> 
0.161 
 
>  <lumo_energy> 
-1.192 
 
>  <melting_point> 
-8.82 
 
>  <molecular_refractivity> 
20.45 
 
>  <oscillator_strength_1> 
0.0016 
 
>  <oscillator_strength_2> 
0.0654 
 
>  <oscillator_strength_3> 
0.0565 
 
>  <oscillator_strength_4> 
0.0078 
 
>  <open_babel_can_smiles> 
CN(N=O)OC 
 
>  <mulliken_charges> 
12 
1   -0.299742 
2   -0.198339 
3   0.154433 
4   0.004877 
5   -0.346865 
6   -0.363908 
7   0.192512 
8   0.180917 
9   0.174647 
10   0.169427 
11   0.183257 
12   0.148784 
 
>  <lowdin_charges> 
12 
1   -0.351955 
2   -0.277414 
3   0.053092 
4   0.042574 
5   -0.242079 
6   -0.198332 
7   0.177811 
8   0.164409 
9   0.165337 
10   0.161626 
11   0.160209 
12   0.144722 
 
$$$$ 
 
