PCCDB-ID:  38293 
public computational chemistry database (PCCDB) project, http://pccdb.org 
 
 16 16  0  0  0  0  0  0  0  0999 V2000 
    0.6439    0.2381    0.1436 C   0  0  0  0  0  0  0  0  0  0  0  0 
    4.2847    1.5079   -0.3347 C   0  0  0  0  0  0  0  0  0  0  0  0 
    4.7652    2.8337   -0.4181 C   0  0  0  0  0  0  0  0  0  0  0  0 
    2.1463    0.1634   -0.0402 C   0  0  0  0  0  0  0  0  0  0  0  0 
    2.9161    1.4343   -0.1558 C   0  0  0  0  0  0  0  0  0  0  0  0 
    3.7397    3.7413   -0.2995 C   0  0  0  0  0  0  0  0  0  0  0  0 
    3.8638    5.1749   -0.3368 N   0  0  0  0  0  0  0  0  0  0  0  0 
    2.7438   -0.8983   -0.1005 O   0  0  0  0  0  0  0  0  0  0  0  0 
    4.9931    5.6392   -0.4900 O   0  0  0  0  0  0  0  0  0  0  0  0 
    2.8261    5.8314   -0.2124 O   0  0  0  0  0  0  0  0  0  0  0  0 
    2.1826    3.0167   -0.0856 S   0  0  0  0  0  0  0  0  0  0  0  0 
    0.1724    0.7397   -0.7107 H   0  0  0  0  0  0  0  0  0  0  0  0 
    0.3854    0.8107    1.0429 H   0  0  0  0  0  0  0  0  0  0  0  0 
    0.2460   -0.7740    0.2319 H   0  0  0  0  0  0  0  0  0  0  0  0 
    4.8981    0.6175   -0.3999 H   0  0  0  0  0  0  0  0  0  0  0  0 
    5.7972    3.1290   -0.5575 H   0  0  0  0  0  0  0  0  0  0  0  0 
  1 14  1  0  0  0  0 
  1 13  1  0  0  0  0 
  2  5  2  0  0  0  0 
  3  2  1  0  0  0  0 
  3  6  2  0  0  0  0 
  4  1  1  0  0  0  0 
  5 11  1  0  0  0  0 
  5  4  1  0  0  0  0 
  6 11  1  0  0  0  0 
  7  6  1  0  0  0  0 
  7 10  2  0  0  0  0 
  8  4  2  0  0  0  0 
  9  7  2  0  0  0  0 
 12  1  1  0  0  0  0 
 15  2  1  0  0  0  0 
 16  3  1  0  0  0  0 
M  END 
>  <HBA> 
2 
 
>  <HBD> 
0 
 
>  <TPSA> 
91.13 
 
>  <cid> 
38293 
 
>  <dipole> 
2.39 
 
>  <excitation_energy_1> 
3.205 
 
>  <excitation_energy_2> 
3.633 
 
>  <excitation_energy_3> 
3.957 
 
>  <excitation_energy_4> 
4.124 
 
>  <homo_energy> 
-7.51 
 
>  <homo_lumo_gap> 
4.286 
 
>  <logP> 
2.382 
 
>  <lumo_energy> 
-3.225 
 
>  <melting_point> 
77.24 
 
>  <molecular_refractivity> 
43.34 
 
>  <oscillator_strength_1> 
0.0 
 
>  <oscillator_strength_2> 
0.0 
 
>  <oscillator_strength_3> 
0.219 
 
>  <oscillator_strength_4> 
0.0004 
 
>  <open_babel_can_smiles> 
CC(=O)c1ccc(s1)N(=O)=O 
 
>  <mulliken_charges> 
16 
1   -0.556132 
2   -0.114321 
3   -0.092341 
4   0.439916 
5   -0.198775 
6   0.035296 
7   0.395872 
8   -0.431971 
9   -0.392157 
10   -0.379618 
11   0.34196 
12   0.187144 
13   0.185902 
14   0.193427 
15   0.189413 
16   0.196386 
 
>  <lowdin_charges> 
16 
1   -0.475812 
2   -0.138514 
3   -0.138911 
4   0.166178 
5   -0.183577 
6   -0.1441 
7   0.3123 
8   -0.2246 
9   -0.237945 
10   -0.241526 
11   0.380334 
12   0.179561 
13   0.178224 
14   0.181475 
15   0.191967 
16   0.194944 
 
$$$$ 
 
