PCCDB-ID:  12732 
public computational chemistry database (PCCDB) project, http://pccdb.org 
 
 16 15  0  0  0  0  0  0  0  0999 V2000 
    0.9798   -0.0409    0.0779 C   0  0  0  0  0  0  0  0  0  0  0  0 
    6.3491    2.3262   -1.5811 C   0  0  0  0  0  0  0  0  0  0  0  0 
    2.1875   -0.0344    0.0807 C   0  0  0  0  0  0  0  0  0  0  0  0 
    5.7640    1.1724   -0.7613 C   0  0  0  0  0  0  0  0  0  0  0  0 
    3.6505   -0.0063    0.0703 C   0  0  0  0  0  0  0  0  0  0  0  0 
    4.2314    1.1610   -0.7560 C   0  0  0  0  0  0  0  0  0  0  0  0 
   -0.0863   -0.0484    0.0761 H   0  0  0  0  0  0  0  0  0  0  0  0 
    7.4447    2.3088   -1.5713 H   0  0  0  0  0  0  0  0  0  0  0  0 
    6.0281    3.2975   -1.1853 H   0  0  0  0  0  0  0  0  0  0  0  0 
    6.0247    2.2731   -2.6276 H   0  0  0  0  0  0  0  0  0  0  0  0 
    6.1316    1.2330    0.2730 H   0  0  0  0  0  0  0  0  0  0  0  0 
    6.1320    0.2163   -1.1602 H   0  0  0  0  0  0  0  0  0  0  0  0 
    4.0301   -0.9578   -0.3291 H   0  0  0  0  0  0  0  0  0  0  0  0 
    4.0228    0.0578    1.1027 H   0  0  0  0  0  0  0  0  0  0  0  0 
    3.8551    1.0909   -1.7848 H   0  0  0  0  0  0  0  0  0  0  0  0 
    3.8509    2.1079   -0.3514 H   0  0  0  0  0  0  0  0  0  0  0  0 
  1  3  3  0  0  0  0 
  2  8  1  0  0  0  0 
  2  9  1  0  0  0  0 
  2  4  1  0  0  0  0 
  4  6  1  0  0  0  0 
  4 11  1  0  0  0  0 
  5  3  1  0  0  0  0 
  5 14  1  0  0  0  0 
  6 16  1  0  0  0  0 
  6  5  1  0  0  0  0 
  7  1  1  0  0  0  0 
 10  2  1  0  0  0  0 
 12  4  1  0  0  0  0 
 13  5  1  0  0  0  0 
 15  6  1  0  0  0  0 
M  END 
>  <HBA> 
0 
 
>  <HBD> 
0 
 
>  <TPSA> 
0.0 
 
>  <cid> 
12732 
 
>  <dipole> 
0.8 
 
>  <excitation_energy_1> 
6.502 
 
>  <excitation_energy_2> 
6.646 
 
>  <excitation_energy_3> 
6.673 
 
>  <excitation_energy_4> 
6.93 
 
>  <homo_energy> 
-6.983 
 
>  <homo_lumo_gap> 
8.596 
 
>  <logP> 
1.81 
 
>  <lumo_energy> 
1.614 
 
>  <melting_point> 
-9.21 
 
>  <molecular_refractivity> 
29.12 
 
>  <oscillator_strength_1> 
0.0003 
 
>  <oscillator_strength_2> 
0.0141 
 
>  <oscillator_strength_3> 
0.0001 
 
>  <oscillator_strength_4> 
0.0401 
 
>  <open_babel_can_smiles> 
CCCCC#C 
 
>  <mulliken_charges> 
16 
1   -0.524215 
2   -0.442306 
3   0.36063 
4   -0.246351 
5   -0.403277 
6   -0.249901 
7   0.184097 
8   0.144326 
9   0.144476 
10   0.144445 
11   0.132767 
12   0.132711 
13   0.166199 
14   0.166283 
15   0.145069 
16   0.145047 
 
>  <lowdin_charges> 
16 
1   -0.265766 
2   -0.439811 
3   -0.039651 
4   -0.272183 
5   -0.259684 
6   -0.267155 
7   0.200479 
8   0.148798 
9   0.147711 
10   0.146722 
11   0.138974 
12   0.139957 
13   0.164214 
14   0.163248 
15   0.146568 
16   0.147579 
 
$$$$ 
 
