PCCDB-ID:  31979 
public computational chemistry database (PCCDB) project, http://pccdb.org 
 
 24 25  0  0  0  0  0  0  0  0999 V2000 
    0.8403   -0.0055   -0.0705 C   0  0  0  0  0  0  0  0  0  0  0  0 
    6.9499   -1.1575    0.4585 C   0  0  0  0  0  0  0  0  0  0  0  0 
    3.9374    3.4618    0.0087 C   0  0  0  0  0  0  0  0  0  0  0  0 
    5.2636    3.0229    0.1331 C   0  0  0  0  0  0  0  0  0  0  0  0 
    2.8933    2.5431   -0.0298 C   0  0  0  0  0  0  0  0  0  0  0  0 
    5.5793    1.6666    0.2202 C   0  0  0  0  0  0  0  0  0  0  0  0 
    3.1546   -1.0713    0.1581 C   0  0  0  0  0  0  0  0  0  0  0  0 
    2.3336    0.0031    0.0444 C   0  0  0  0  0  0  0  0  0  0  0  0 
    5.5167   -1.6328    0.3707 C   0  0  0  0  0  0  0  0  0  0  0  0 
    3.1845    1.1767    0.0558 C   0  0  0  0  0  0  0  0  0  0  0  0 
    4.5309    0.7422    0.1808 C   0  0  0  0  0  0  0  0  0  0  0  0 
    4.5005   -0.6686    0.2436 N   0  0  0  0  0  0  0  0  0  0  0  0 
    5.2271   -2.8156    0.4080 O   0  0  0  0  0  0  0  0  0  0  0  0 
    0.4496   -1.0276   -0.0658 H   0  0  0  0  0  0  0  0  0  0  0  0 
    0.5064    0.4772   -0.9980 H   0  0  0  0  0  0  0  0  0  0  0  0 
    0.3704    0.5371    0.7601 H   0  0  0  0  0  0  0  0  0  0  0  0 
    7.1039   -0.5151    1.3319 H   0  0  0  0  0  0  0  0  0  0  0  0 
    7.2390   -0.5928   -0.4340 H   0  0  0  0  0  0  0  0  0  0  0  0 
    7.5820   -2.0418    0.5460 H   0  0  0  0  0  0  0  0  0  0  0  0 
    3.7268    4.5255   -0.0569 H   0  0  0  0  0  0  0  0  0  0  0  0 
    6.0696    3.7508    0.1627 H   0  0  0  0  0  0  0  0  0  0  0  0 
    1.8639    2.8782   -0.1251 H   0  0  0  0  0  0  0  0  0  0  0  0 
    6.6148    1.3703    0.3161 H   0  0  0  0  0  0  0  0  0  0  0  0 
    2.9356   -2.1271    0.1896 H   0  0  0  0  0  0  0  0  0  0  0  0 
  1 14  1  0  0  0  0 
  1  8  1  0  0  0  0 
  1 16  1  0  0  0  0 
  2 19  1  0  0  0  0 
  2 17  1  0  0  0  0 
  3  4  1  0  0  0  0 
  4 21  1  0  0  0  0 
  4  6  2  0  0  0  0 
  5  3  2  0  0  0  0 
  5 10  1  0  0  0  0 
  6 23  1  0  0  0  0 
  7 24  1  0  0  0  0 
  7 12  1  0  0  0  0 
  8 10  1  0  0  0  0 
  8  7  2  0  0  0  0 
  9 13  2  0  0  0  0 
  9  2  1  0  0  0  0 
 10 11  2  0  0  0  0 
 11  6  1  0  0  0  0 
 11 12  1  0  0  0  0 
 12  9  1  0  0  0  0 
 15  1  1  0  0  0  0 
 18  2  1  0  0  0  0 
 20  3  1  0  0  0  0 
 22  5  1  0  0  0  0 
M  END 
>  <HBA> 
2 
 
>  <HBD> 
0 
 
>  <TPSA> 
22.0 
 
>  <cid> 
31979 
 
>  <dipole> 
2.2 
 
>  <excitation_energy_1> 
4.35 
 
>  <excitation_energy_2> 
4.674 
 
>  <excitation_energy_3> 
4.889 
 
>  <excitation_energy_4> 
4.945 
 
>  <homo_energy> 
-5.796 
 
>  <homo_lumo_gap> 
4.955 
 
>  <logP> 
2.61 
 
>  <lumo_energy> 
-0.841 
 
>  <melting_point> 
76.38 
 
>  <molecular_refractivity> 
53.39 
 
>  <oscillator_strength_1> 
0.149 
 
>  <oscillator_strength_2> 
0.0159 
 
>  <oscillator_strength_3> 
0.0808 
 
>  <oscillator_strength_4> 
0.0005 
 
>  <open_babel_can_smiles> 
Cc1cn(c2c1cccc2)C(=O)C 
 
>  <mulliken_charges> 
24 
1   -0.530205 
2   -0.55068 
3   -0.133072 
4   -0.150185 
5   -0.211344 
6   -0.155039 
7   -0.012919 
8   0.09505 
9   0.585867 
10   0.062956 
11   0.312868 
12   -0.595418 
13   -0.467933 
14   0.16138 
15   0.161868 
16   0.162142 
17   0.18455 
18   0.184328 
19   0.192004 
20   0.128078 
21   0.12909 
22   0.129887 
23   0.132814 
24   0.183915 
 
>  <lowdin_charges> 
24 
1   -0.436724 
2   -0.470663 
3   -0.162916 
4   -0.161856 
5   -0.159775 
6   -0.185346 
7   -0.119307 
8   -0.036646 
9   0.18101 
10   -0.024187 
11   0.037075 
12   -0.034907 
13   -0.264535 
14   0.162121 
15   0.160497 
16   0.161298 
17   0.176325 
18   0.176195 
19   0.182397 
20   0.15648 
21   0.159594 
22   0.158718 
23   0.161796 
24   0.183356 
 
$$$$ 
 
