PCCDB-ID:  42848 
public computational chemistry database (PCCDB) project, http://pccdb.org 
 
 27 26  0  0  0  0  0  0  0  0999 V2000 
    1.1058    0.4836   -0.3231 C   0  0  0  0  0  0  0  0  0  0  0  0 
    2.6331    0.5404   -0.4243 C   0  0  0  0  0  0  0  0  0  0  0  0 
    3.1215    1.6950   -1.3089 C   0  0  0  0  0  0  0  0  0  0  0  0 
    5.1163    0.7347   -2.4214 C   0  0  0  0  0  0  0  0  0  0  0  0 
    5.1685    3.0490   -1.5734 C   0  0  0  0  0  0  0  0  0  0  0  0 
    6.3734    0.0692   -1.8490 C   0  0  0  0  0  0  0  0  0  0  0  0 
    4.7298    3.8913   -2.7804 C   0  0  0  0  0  0  0  0  0  0  0  0 
    4.5820    1.7131   -1.4617 N   0  0  0  0  0  0  0  0  0  0  0  0 
    6.1051   -0.4731   -0.5704 O   0  0  0  0  0  0  0  0  0  0  0  0 
    5.4513    5.1155   -2.6986 O   0  0  0  0  0  0  0  0  0  0  0  0 
    0.7833   -0.3402    0.3227 H   0  0  0  0  0  0  0  0  0  0  0  0 
    0.6455    0.3336   -1.3075 H   0  0  0  0  0  0  0  0  0  0  0  0 
    0.6974    1.4124    0.0947 H   0  0  0  0  0  0  0  0  0  0  0  0 
    3.0157   -0.4124   -0.8115 H   0  0  0  0  0  0  0  0  0  0  0  0 
    3.0730    0.6608    0.5744 H   0  0  0  0  0  0  0  0  0  0  0  0 
    2.8232    2.6416   -0.8412 H   0  0  0  0  0  0  0  0  0  0  0  0 
    2.6042    1.6565   -2.2853 H   0  0  0  0  0  0  0  0  0  0  0  0 
    4.3598   -0.0406   -2.5769 H   0  0  0  0  0  0  0  0  0  0  0  0 
    5.3310    1.1776   -3.4083 H   0  0  0  0  0  0  0  0  0  0  0  0 
    4.9342    3.6135   -0.6629 H   0  0  0  0  0  0  0  0  0  0  0  0 
    6.2595    2.9529   -1.6078 H   0  0  0  0  0  0  0  0  0  0  0  0 
    7.2030    0.7967   -1.8096 H   0  0  0  0  0  0  0  0  0  0  0  0 
    6.6928   -0.7538   -2.4980 H   0  0  0  0  0  0  0  0  0  0  0  0 
    3.6426    4.0650   -2.7466 H   0  0  0  0  0  0  0  0  0  0  0  0 
    4.9495    3.3610   -3.7206 H   0  0  0  0  0  0  0  0  0  0  0  0 
    5.5990    0.2316   -0.1232 H   0  0  0  0  0  0  0  0  0  0  0  0 
    5.1909    5.6690   -3.4499 H   0  0  0  0  0  0  0  0  0  0  0  0 
  1 13  1  0  0  0  0 
  1 11  1  0  0  0  0 
  2  1  1  0  0  0  0 
  2 15  1  0  0  0  0 
  3 16  1  0  0  0  0 
  3  2  1  0  0  0  0 
  4  6  1  0  0  0  0 
  4  8  1  0  0  0  0 
  5  8  1  0  0  0  0 
  5 20  1  0  0  0  0 
  6 22  1  0  0  0  0 
  6  9  1  0  0  0  0 
  7 24  1  0  0  0  0 
  7 10  1  0  0  0  0 
  7  5  1  0  0  0  0 
  8  3  1  0  0  0  0 
  9 26  1  0  0  0  0 
 12  1  1  0  0  0  0 
 14  2  1  0  0  0  0 
 17  3  1  0  0  0  0 
 18  4  1  0  0  0  0 
 19  4  1  0  0  0  0 
 21  5  1  0  0  0  0 
 23  6  1  0  0  0  0 
 25  7  1  0  0  0  0 
 27 10  1  0  0  0  0 
M  END 
>  <HBA> 
3 
 
>  <HBD> 
2 
 
>  <TPSA> 
43.7 
 
>  <cid> 
42848 
 
>  <dipole> 
3.56 
 
>  <excitation_energy_1> 
5.161 
 
>  <excitation_energy_2> 
5.632 
 
>  <excitation_energy_3> 
5.722 
 
>  <excitation_energy_4> 
5.793 
 
>  <homo_energy> 
-5.872 
 
>  <homo_lumo_gap> 
7.693 
 
>  <logP> 
-0.317 
 
>  <lumo_energy> 
1.82 
 
>  <melting_point> 
12.65 
 
>  <molecular_refractivity> 
40.98 
 
>  <oscillator_strength_1> 
0.0087 
 
>  <oscillator_strength_2> 
0.0115 
 
>  <oscillator_strength_3> 
0.0193 
 
>  <oscillator_strength_4> 
0.0202 
 
>  <open_babel_can_smiles> 
CCCN(CCO)CCO 
 
>  <mulliken_charges> 
27 
1   -0.449148 
2   -0.258326 
3   -0.120919 
4   -0.159774 
5   -0.152106 
6   -0.017031 
7   -0.042318 
8   -0.414308 
9   -0.627536 
10   -0.618078 
11   0.150272 
12   0.142779 
13   0.142131 
14   0.150591 
15   0.13786 
16   0.138885 
17   0.11886 
18   0.150378 
19   0.122876 
20   0.154654 
21   0.157361 
22   0.117843 
23   0.137237 
24   0.122848 
25   0.12274 
26   0.397841 
27   0.394388 
 
>  <lowdin_charges> 
27 
1   -0.446611 
2   -0.283006 
3   -0.200651 
4   -0.222565 
5   -0.211103 
6   -0.142537 
7   -0.148395 
8   -0.189555 
9   -0.476699 
10   -0.47206 
11   0.155246 
12   0.146583 
13   0.146845 
14   0.147517 
15   0.142982 
16   0.144899 
17   0.122494 
18   0.152446 
19   0.130108 
20   0.151584 
21   0.150957 
22   0.122663 
23   0.145816 
24   0.124202 
25   0.125576 
26   0.336068 
27   0.347197 
 
$$$$ 
 
