PCCDB-ID:  40221 
public computational chemistry database (PCCDB) project, http://pccdb.org 
 
 30 31  0  0  1  0  0  0  0  0999 V2000 
    2.1106   -0.9951   -0.9425 C   0  0  0  0  0  0  0  0  0  0  0  0 
    1.1207   -1.5452    0.1024 C   0  0  0  0  0  0  0  0  0  0  0  0 
    2.7730    0.3223   -0.5254 C   0  0  0  0  0  0  0  0  0  0  0  0 
   -1.3689   -1.6357   -0.2041 C   0  0  0  0  0  0  0  0  0  0  0  0 
   -1.7022    1.0317    0.3688 C   0  0  0  0  0  0  0  0  0  0  0  0 
   -0.2350   -0.8680    0.1002 C   0  0  0  0  0  0  0  0  0  0  0  0 
   -0.4065    0.4988    0.3855 C   0  0  0  0  0  0  0  0  0  0  0  0 
    1.8637    1.5497   -0.3249 C   0  0  2  0  0  0  0  0  0  0  0  0 
   -2.6541   -1.0997   -0.2284 C   0  0  0  0  0  0  0  0  0  0  0  0 
   -2.8219    0.2625    0.0672 C   0  0  0  0  0  0  0  0  0  0  0  0 
    0.7603    1.4255    0.7574 C   0  0  1  0  0  0  0  0  0  0  0  0 
    1.2097    2.0953   -1.5260 N   0  0  0  0  0  0  0  0  0  0  0  0 
   -3.7725   -1.8304   -0.5223 O   0  0  0  0  0  0  0  0  0  0  0  0 
   -4.0945    0.7644    0.0466 O   0  0  0  0  0  0  0  0  0  0  0  0 
    0.3078    2.7466    1.0329 O   0  0  0  0  0  0  0  0  0  0  0  0 
    2.9041   -1.7363   -1.1046 H   0  0  0  0  0  0  0  0  0  0  0  0 
    1.5958   -0.8822   -1.9066 H   0  0  0  0  0  0  0  0  0  0  0  0 
    1.5852   -1.4688    1.0980 H   0  0  0  0  0  0  0  0  0  0  0  0 
    0.9726   -2.6164   -0.0770 H   0  0  0  0  0  0  0  0  0  0  0  0 
    3.5347    0.5951   -1.2700 H   0  0  0  0  0  0  0  0  0  0  0  0 
    3.3200    0.1530    0.4145 H   0  0  0  0  0  0  0  0  0  0  0  0 
   -1.2446   -2.6952   -0.4280 H   0  0  0  0  0  0  0  0  0  0  0  0 
   -1.8288    2.0796    0.6255 H   0  0  0  0  0  0  0  0  0  0  0  0 
    2.5129    2.3522    0.0486 H   0  0  0  0  0  0  0  0  0  0  0  0 
    1.2235    1.0644    1.6859 H   0  0  0  0  0  0  0  0  0  0  0  0 
    0.6164    1.3894   -1.9598 H   0  0  0  0  0  0  0  0  0  0  0  0 
    1.9015    2.3777   -2.2173 H   0  0  0  0  0  0  0  0  0  0  0  0 
   -3.5031   -2.7482   -0.6816 H   0  0  0  0  0  0  0  0  0  0  0  0 
   -4.0509    1.7016    0.2925 H   0  0  0  0  0  0  0  0  0  0  0  0 
    0.2514    3.1574    0.1467 H   0  0  0  0  0  0  0  0  0  0  0  0 
  1  3  1  0  0  0  0 
  1  2  1  0  0  0  0 
  2 18  1  0  0  0  0 
  3  8  1  0  0  0  0 
  3 21  1  0  0  0  0 
  4  6  1  0  0  0  0 
  5  7  1  0  0  0  0 
  5 23  1  0  0  0  0 
  6  2  1  0  0  0  0 
  6  7  2  0  0  0  0 
  7 11  1  0  0  0  0 
  8 24  1  1  0  0  0 
  8 11  1  0  0  0  0 
  9  4  2  0  0  0  0 
  9 10  1  0  0  0  0 
 10  5  2  0  0  0  0 
 11 15  1  0  0  0  0 
 11 25  1  1  0  0  0 
 12  8  1  0  0  0  0 
 13  9  1  0  0  0  0 
 14 10  1  0  0  0  0 
 14 29  1  0  0  0  0 
 16  1  1  0  0  0  0 
 17  1  1  0  0  0  0 
 19  2  1  0  0  0  0 
 20  3  1  0  0  0  0 
 22  4  1  0  0  0  0 
 26 12  1  0  0  0  0 
 27 12  1  0  0  0  0 
 28 13  1  0  0  0  0 
 30 15  1  0  0  0  0 
M  END 
>  <HBA> 
4 
 
>  <HBD> 
4 
 
>  <TPSA> 
86.71 
 
>  <cid> 
40221 
 
>  <dipole> 
3.63 
 
>  <excitation_energy_1> 
4.675 
 
>  <excitation_energy_2> 
4.746 
 
>  <excitation_energy_3> 
4.967 
 
>  <excitation_energy_4> 
4.978 
 
>  <homo_energy> 
-5.331 
 
>  <homo_lumo_gap> 
5.671 
 
>  <logP> 
1.495 
 
>  <lumo_energy> 
0.34 
 
>  <melting_point> 
187.39 
 
>  <molecular_refractivity> 
56.6 
 
>  <oscillator_strength_1> 
0.013 
 
>  <oscillator_strength_2> 
0.0593 
 
>  <oscillator_strength_3> 
0.0009 
 
>  <oscillator_strength_4> 
0.0027 
 
>  <open_babel_can_smiles> 
N[C@@H]1CCCc2c([C@@H]1O)cc(O)c(c2)O 
 
>  <mulliken_charges> 
30 
1   -0.253392 
2   -0.356169 
3   -0.271434 
4   -0.281832 
5   -0.268229 
6   0.12881 
7   0.051809 
8   -0.010278 
9   0.335216 
10   0.335013 
11   0.08771 
12   -0.748819 
13   -0.637563 
14   -0.639158 
15   -0.642795 
16   0.135827 
17   0.128531 
18   0.144174 
19   0.139193 
20   0.125922 
21   0.132273 
22   0.108275 
23   0.134011 
24   0.144854 
25   0.140657 
26   0.314046 
27   0.304898 
28   0.405382 
29   0.407436 
30   0.405632 
 
>  <lowdin_charges> 
30 
1   -0.278579 
2   -0.272657 
3   -0.294813 
4   -0.217005 
5   -0.208584 
6   -0.027226 
7   -0.047982 
8   -0.089458 
9   0.073448 
10   0.073247 
11   -0.005751 
12   -0.557655 
13   -0.369675 
14   -0.371669 
15   -0.459939 
16   0.14776 
17   0.138059 
18   0.147077 
19   0.147488 
20   0.142886 
21   0.143587 
22   0.146773 
23   0.163452 
24   0.150214 
25   0.148277 
26   0.262671 
27   0.261069 
28   0.355932 
29   0.356598 
30   0.342454 
 
$$$$ 
 
