PCCDB-ID:  33543 
public computational chemistry database (PCCDB) project, http://pccdb.org 
 
 19 18  0  0  0  0  0  0  0  0999 V2000 
    1.3004   -0.6961   -0.1498 C   0  0  0  0  0  0  0  0  0  0  0  0 
    0.3416   -1.5950    0.0959 C   0  0  0  0  0  0  0  0  0  0  0  0 
   -4.0977   -1.7134   -0.0759 C   0  0  0  0  0  0  0  0  0  0  0  0 
   -3.1742   -1.9479    1.1144 C   0  0  0  0  0  0  0  0  0  0  0  0 
    2.6709   -1.1336   -0.5539 C   0  0  0  0  0  0  0  0  0  0  0  0 
   -1.0184   -1.1585    0.5004 C   0  0  0  0  0  0  0  0  0  0  0  0 
   -3.6762   -0.6709   -0.9314 O   0  0  0  0  0  0  0  0  0  0  0  0 
    3.0069   -2.2885   -0.6604 O   0  0  0  0  0  0  0  0  0  0  0  0 
    3.5559   -0.1337   -0.8043 O   0  0  0  0  0  0  0  0  0  0  0  0 
   -1.3566    0.0032    0.6545 O   0  0  0  0  0  0  0  0  0  0  0  0 
   -1.8189   -2.2228    0.6928 O   0  0  0  0  0  0  0  0  0  0  0  0 
    1.0698    0.3631   -0.0495 H   0  0  0  0  0  0  0  0  0  0  0  0 
    0.5388   -2.6581    0.0017 H   0  0  0  0  0  0  0  0  0  0  0  0 
   -5.1088   -1.5344    0.3314 H   0  0  0  0  0  0  0  0  0  0  0  0 
   -4.1475   -2.6190   -0.6906 H   0  0  0  0  0  0  0  0  0  0  0  0 
   -3.4856   -2.8352    1.6715 H   0  0  0  0  0  0  0  0  0  0  0  0 
   -3.1636   -1.0833    1.7847 H   0  0  0  0  0  0  0  0  0  0  0  0 
   -3.2698    0.0244   -0.3875 H   0  0  0  0  0  0  0  0  0  0  0  0 
    3.1368    0.7340   -0.6822 H   0  0  0  0  0  0  0  0  0  0  0  0 
  1 12  1  0  0  0  0 
  1  2  2  0  0  0  0 
  2  6  1  0  0  0  0 
  3 14  1  0  0  0  0 
  3  4  1  0  0  0  0 
  4 16  1  0  0  0  0 
  4 17  1  0  0  0  0 
  5  1  1  0  0  0  0 
  6 10  2  0  0  0  0 
  6 11  1  0  0  0  0 
  7 18  1  0  0  0  0 
  7  3  1  0  0  0  0 
  8  5  2  0  0  0  0 
  9 19  1  0  0  0  0 
  9  5  1  0  0  0  0 
 11  4  1  0  0  0  0 
 13  2  1  0  0  0  0 
 15  3  1  0  0  0  0 
M  END 
>  <HBA> 
5 
 
>  <HBD> 
2 
 
>  <TPSA> 
83.83 
 
>  <cid> 
33543 
 
>  <dipole> 
3.61 
 
>  <excitation_energy_1> 
3.965 
 
>  <excitation_energy_2> 
4.155 
 
>  <excitation_energy_3> 
4.344 
 
>  <excitation_energy_4> 
5.339 
 
>  <homo_energy> 
-7.407 
 
>  <homo_lumo_gap> 
4.784 
 
>  <logP> 
-0.837 
 
>  <lumo_energy> 
-2.623 
 
>  <melting_point> 
91.45 
 
>  <molecular_refractivity> 
34.7 
 
>  <oscillator_strength_1> 
0.0005 
 
>  <oscillator_strength_2> 
0.0065 
 
>  <oscillator_strength_3> 
0.0001 
 
>  <oscillator_strength_4> 
0.0175 
 
>  <open_babel_can_smiles> 
OCCOC(=O)/C=C/C(=O)O 
 
>  <mulliken_charges> 
19 
1   -0.199027 
2   -0.151174 
3   -0.01271 
4   -0.107268 
5   0.611069 
6   0.644633 
7   -0.623933 
8   -0.4391 
9   -0.572447 
10   -0.510585 
11   -0.456877 
12   0.169972 
13   0.198241 
14   0.128135 
15   0.156804 
16   0.166926 
17   0.172933 
18   0.409537 
19   0.414868 
 
>  <lowdin_charges> 
19 
1   -0.166323 
2   -0.128361 
3   -0.138085 
4   -0.152984 
5   0.192172 
6   0.199647 
7   -0.468178 
8   -0.229944 
9   -0.344939 
10   -0.281052 
11   -0.169835 
12   0.173616 
13   0.193211 
14   0.13386 
15   0.152256 
16   0.165872 
17   0.159657 
18   0.348076 
19   0.361333 
 
$$$$ 
 
