PCCDB-ID:  15155 
public computational chemistry database (PCCDB) project, http://pccdb.org 
 
 19 20  0  0  0  0  0  0  0  0999 V2000 
   -3.4514    0.5437   -0.4850 C   0  0  0  0  0  0  0  0  0  0  0  0 
   -2.2355    0.2753   -1.4110 C   0  0  0  0  0  0  0  0  0  0  0  0 
   -2.5059    0.5529    0.7452 C   0  0  0  0  0  0  0  0  0  0  0  0 
   -0.1241    1.3459   -0.1712 C   0  0  0  0  0  0  0  0  0  0  0  0 
    1.0757    0.4589    0.1048 C   0  0  0  0  0  0  0  0  0  0  0  0 
   -0.5253   -1.0058    0.0832 C   0  0  0  0  0  0  0  0  0  0  0  0 
   -1.2667    0.3234   -0.1832 C   0  0  0  0  0  0  0  0  0  0  0  0 
    0.8711   -0.8014    0.2418 N   0  0  0  0  0  0  0  0  0  0  0  0 
    2.3111    0.9635    0.2035 O   0  0  0  0  0  0  0  0  0  0  0  0 
   -1.0696   -2.0844    0.1492 O   0  0  0  0  0  0  0  0  0  0  0  0 
   -4.1996   -0.2531   -0.4761 H   0  0  0  0  0  0  0  0  0  0  0  0 
   -3.9615    1.4936   -0.6712 H   0  0  0  0  0  0  0  0  0  0  0  0 
   -2.0417    1.0461   -2.1642 H   0  0  0  0  0  0  0  0  0  0  0  0 
   -2.2502   -0.7021   -1.9006 H   0  0  0  0  0  0  0  0  0  0  0  0 
   -2.6692   -0.2716    1.4443 H   0  0  0  0  0  0  0  0  0  0  0  0 
   -2.4769    1.4928    1.3065 H   0  0  0  0  0  0  0  0  0  0  0  0 
   -0.0023    1.8734   -1.1270 H   0  0  0  0  0  0  0  0  0  0  0  0 
   -0.2300    2.1092    0.6114 H   0  0  0  0  0  0  0  0  0  0  0  0 
    2.2802    1.9257    0.0742 H   0  0  0  0  0  0  0  0  0  0  0  0 
  1 11  1  0  0  0  0 
  1  3  1  0  0  0  0 
  2  1  1  0  0  0  0 
  2  7  1  0  0  0  0 
  3 16  1  0  0  0  0 
  3 15  1  0  0  0  0 
  4  5  1  0  0  0  0 
  4 18  1  0  0  0  0 
  5  9  1  0  0  0  0 
  5  8  2  0  0  0  0 
  6 10  2  0  0  0  0 
  6  8  1  0  0  0  0 
  7  4  1  0  0  0  0 
  7  6  1  0  0  0  0 
  7  3  1  0  0  0  0 
 12  1  1  0  0  0  0 
 13  2  1  0  0  0  0 
 14  2  1  0  0  0  0 
 17  4  1  0  0  0  0 
 19  9  1  0  0  0  0 
M  END 
>  <HBA> 
3 
 
>  <HBD> 
1 
 
>  <TPSA> 
46.17 
 
>  <cid> 
15155 
 
>  <dipole> 
6.54 
 
>  <excitation_energy_1> 
4.245 
 
>  <excitation_energy_2> 
5.382 
 
>  <excitation_energy_3> 
5.58 
 
>  <excitation_energy_4> 
6.202 
 
>  <homo_energy> 
-6.661 
 
>  <homo_lumo_gap> 
5.736 
 
>  <logP> 
0.532 
 
>  <lumo_energy> 
-0.925 
 
>  <melting_point> 
106.58 
 
>  <molecular_refractivity> 
38.39 
 
>  <oscillator_strength_1> 
0.0006 
 
>  <oscillator_strength_2> 
0.0004 
 
>  <oscillator_strength_3> 
0.011 
 
>  <oscillator_strength_4> 
0.0003 
 
>  <open_babel_can_smiles> 
O=C1N=C(CC21CCC2)O 
 
>  <mulliken_charges> 
19 
1   -0.27385 
2   -0.286529 
3   -0.28666 
4   -0.421718 
5   0.521577 
6   0.5379 
7   0.018045 
8   -0.456276 
9   -0.560947 
10   -0.470328 
11   0.155832 
12   0.139197 
13   0.13635 
14   0.170376 
15   0.170409 
16   0.13641 
17   0.175389 
18   0.174845 
19   0.419977 
 
>  <lowdin_charges> 
19 
1   -0.280819 
2   -0.274823 
3   -0.274919 
4   -0.320657 
5   0.147607 
6   0.156873 
7   -0.030672 
8   -0.190962 
9   -0.311922 
10   -0.234688 
11   0.155138 
12   0.145698 
13   0.145249 
14   0.162394 
15   0.163257 
16   0.144521 
17   0.166772 
18   0.167058 
19   0.364896 
 
$$$$ 
 
