PCCDB-ID:  25982 
public computational chemistry database (PCCDB) project, http://pccdb.org 
 
 26 25  0  0  1  0  0  0  0  0999 V2000 
    0.9281    3.8276    0.6177 C   0  0  0  0  0  0  0  0  0  0  0  0 
    2.1795    0.2060    6.0490 C   0  0  0  0  0  0  0  0  0  0  0  0 
    0.3531    3.2326    5.1096 C   0  0  0  0  0  0  0  0  0  0  0  0 
    2.5149    2.0526    1.5453 C   0  0  0  0  0  0  0  0  0  0  0  0 
    2.4528    1.2990    3.7985 C   0  0  0  0  0  0  0  0  0  0  0  0 
    1.5658    2.4504    0.4133 C   0  0  1  0  0  0  0  0  0  0  0  0 
    1.5465    1.1443    5.0222 C   0  0  2  0  0  0  0  0  0  0  0  0 
    0.5773    1.4380    0.2468 O   0  0  0  0  0  0  0  0  0  0  0  0 
    1.3200    2.3769    5.6939 O   0  0  0  0  0  0  0  0  0  0  0  0 
    1.7313    1.8765    2.7195 O   0  0  0  0  0  0  0  0  0  0  0  0 
    1.6886    4.6174    0.6516 H   0  0  0  0  0  0  0  0  0  0  0  0 
    0.3624    3.8576    1.5550 H   0  0  0  0  0  0  0  0  0  0  0  0 
    0.2411    4.0415   -0.2066 H   0  0  0  0  0  0  0  0  0  0  0  0 
    2.3116   -0.8004    5.6382 H   0  0  0  0  0  0  0  0  0  0  0  0 
    1.5397    0.1434    6.9334 H   0  0  0  0  0  0  0  0  0  0  0  0 
    3.1576    0.5855    6.3657 H   0  0  0  0  0  0  0  0  0  0  0  0 
    0.1696    4.0325    5.8330 H   0  0  0  0  0  0  0  0  0  0  0  0 
   -0.5929    2.7002    4.9226 H   0  0  0  0  0  0  0  0  0  0  0  0 
    0.6972    3.6689    4.1647 H   0  0  0  0  0  0  0  0  0  0  0  0 
    3.2908    2.8183    1.7072 H   0  0  0  0  0  0  0  0  0  0  0  0 
    3.0143    1.1058    1.2857 H   0  0  0  0  0  0  0  0  0  0  0  0 
    2.8419    0.3127    3.4945 H   0  0  0  0  0  0  0  0  0  0  0  0 
    3.3119    1.9328    4.0700 H   0  0  0  0  0  0  0  0  0  0  0  0 
    2.1447    2.4563   -0.5187 H   0  0  0  0  0  0  0  0  0  0  0  0 
    0.5841    0.7268    4.6804 H   0  0  0  0  0  0  0  0  0  0  0  0 
    0.2485    1.2530    1.1432 H   0  0  0  0  0  0  0  0  0  0  0  0 
  1 11  1  0  0  0  0 
  1 12  1  0  0  0  0 
  2 16  1  0  0  0  0 
  2 15  1  0  0  0  0 
  3  9  1  0  0  0  0 
  3 17  1  0  0  0  0 
  4 20  1  0  0  0  0 
  4 10  1  0  0  0  0 
  5 23  1  0  0  0  0 
  5  7  1  0  0  0  0 
  6 24  1  6  0  0  0 
  6  1  1  0  0  0  0 
  6  4  1  0  0  0  0 
  7 25  1  6  0  0  0 
  7  9  1  0  0  0  0 
  7  2  1  0  0  0  0 
  8  6  1  0  0  0  0 
  8 26  1  0  0  0  0 
 10  5  1  0  0  0  0 
 13  1  1  0  0  0  0 
 14  2  1  0  0  0  0 
 18  3  1  0  0  0  0 
 19  3  1  0  0  0  0 
 21  4  1  0  0  0  0 
 22  5  1  0  0  0  0 
M  END 
>  <HBA> 
3 
 
>  <HBD> 
1 
 
>  <TPSA> 
38.69 
 
>  <cid> 
25982 
 
>  <dipole> 
1.19 
 
>  <excitation_energy_1> 
6.403 
 
>  <excitation_energy_2> 
6.625 
 
>  <excitation_energy_3> 
6.676 
 
>  <excitation_energy_4> 
6.753 
 
>  <homo_energy> 
-6.757 
 
>  <homo_lumo_gap> 
8.729 
 
>  <logP> 
0.419 
 
>  <lumo_energy> 
1.973 
 
>  <melting_point> 
-26.51 
 
>  <molecular_refractivity> 
39.09 
 
>  <oscillator_strength_1> 
0.0095 
 
>  <oscillator_strength_2> 
0.0126 
 
>  <oscillator_strength_3> 
0.0082 
 
>  <oscillator_strength_4> 
0.034 
 
>  <open_babel_can_smiles> 
CO[C@@H](COC[C@@H](O)C)C 
 
>  <mulliken_charges> 
26 
1   -0.456184 
2   -0.458771 
3   -0.200278 
4   -0.028908 
5   -0.008891 
6   0.124052 
7   0.132242 
8   -0.631161 
9   -0.473023 
10   -0.501786 
11   0.134971 
12   0.155693 
13   0.158098 
14   0.143565 
15   0.163277 
16   0.155203 
17   0.150591 
18   0.125911 
19   0.15456 
20   0.124729 
21   0.13183 
22   0.121599 
23   0.133544 
24   0.135727 
25   0.11845 
26   0.394961 
 
>  <lowdin_charges> 
26 
1   -0.463123 
2   -0.447291 
3   -0.283612 
4   -0.14793 
5   -0.14447 
6   -0.005339 
7   -0.001129 
8   -0.466197 
9   -0.27342 
10   -0.28066 
11   0.149445 
12   0.153427 
13   0.159902 
14   0.152025 
15   0.163326 
16   0.15585 
17   0.151532 
18   0.131031 
19   0.141342 
20   0.13378 
21   0.136037 
22   0.132278 
23   0.138288 
24   0.145365 
25   0.130125 
26   0.339417 
 
$$$$ 
 
