PCCDB-ID:  23603 
public computational chemistry database (PCCDB) project, http://pccdb.org 
 
 33 35  0  0  0  0  0  0  0  0999 V2000 
   -3.7521    0.1797    0.8129 C   0  0  0  0  0  0  0  0  0  0  0  0 
    3.8162    0.2664    0.7794 C   0  0  0  0  0  0  0  0  0  0  0  0 
   -3.3861   -1.1589    0.9197 C   0  0  0  0  0  0  0  0  0  0  0  0 
    3.6569   -1.0573    0.3807 C   0  0  0  0  0  0  0  0  0  0  0  0 
   -2.8887    1.0722    0.1787 C   0  0  0  0  0  0  0  0  0  0  0  0 
    2.7545    1.1476    0.6121 C   0  0  0  0  0  0  0  0  0  0  0  0 
   -2.1688   -1.5966    0.3938 C   0  0  0  0  0  0  0  0  0  0  0  0 
    2.4358   -1.4729   -0.1440 C   0  0  0  0  0  0  0  0  0  0  0  0 
   -0.7211    1.6456   -0.9674 C   0  0  0  0  0  0  0  0  0  0  0  0 
    0.5050    1.8853   -0.0752 C   0  0  0  0  0  0  0  0  0  0  0  0 
   -1.6647    0.6480   -0.3476 C   0  0  0  0  0  0  0  0  0  0  0  0 
    1.5155    0.7528    0.0806 C   0  0  0  0  0  0  0  0  0  0  0  0 
   -1.2887   -0.7054   -0.2363 C   0  0  0  0  0  0  0  0  0  0  0  0 
    1.3332   -0.6046   -0.2775 C   0  0  0  0  0  0  0  0  0  0  0  0 
    0.0252   -1.1625   -0.9019 C   0  0  0  0  0  0  0  0  0  0  0  0 
    0.0542   -2.6893   -1.0453 C   0  0  0  0  0  0  0  0  0  0  0  0 
   -0.0934   -3.3621   -2.1098 N   0  0  0  0  0  0  0  0  0  0  0  0 
    0.2209   -3.3993    0.1120 O   0  0  0  0  0  0  0  0  0  0  0  0 
   -4.7007    0.5277    1.2126 H   0  0  0  0  0  0  0  0  0  0  0  0 
    4.7575    0.6150    1.1952 H   0  0  0  0  0  0  0  0  0  0  0  0 
   -4.0466   -1.8733    1.4034 H   0  0  0  0  0  0  0  0  0  0  0  0 
    4.4739   -1.7680    0.4678 H   0  0  0  0  0  0  0  0  0  0  0  0 
   -3.1670    2.1197    0.0854 H   0  0  0  0  0  0  0  0  0  0  0  0 
    2.8833    2.1920    0.8894 H   0  0  0  0  0  0  0  0  0  0  0  0 
   -1.9186   -2.6482    0.4721 H   0  0  0  0  0  0  0  0  0  0  0  0 
    2.3488   -2.5052   -0.4626 H   0  0  0  0  0  0  0  0  0  0  0  0 
   -0.3971    1.3257   -1.9672 H   0  0  0  0  0  0  0  0  0  0  0  0 
   -1.2383    2.6015   -1.1063 H   0  0  0  0  0  0  0  0  0  0  0  0 
    0.1455    2.1807    0.9211 H   0  0  0  0  0  0  0  0  0  0  0  0 
    1.0507    2.7550   -0.4633 H   0  0  0  0  0  0  0  0  0  0  0  0 
   -0.0083   -0.7904   -1.9347 H   0  0  0  0  0  0  0  0  0  0  0  0 
   -0.2280   -2.7349   -2.9039 H   0  0  0  0  0  0  0  0  0  0  0  0 
    0.4217   -2.7826    0.8349 H   0  0  0  0  0  0  0  0  0  0  0  0 
  1  3  1  0  0  0  0 
  1 19  1  0  0  0  0 
  2 20  1  0  0  0  0 
  3 21  1  0  0  0  0 
  4 22  1  0  0  0  0 
  4  2  2  0  0  0  0 
  5  1  2  0  0  0  0 
  6  2  1  0  0  0  0 
  6 24  1  0  0  0  0 
  7 25  1  0  0  0  0 
  7  3  2  0  0  0  0 
  8  4  1  0  0  0  0 
  9 11  1  0  0  0  0 
  9 10  1  0  0  0  0 
 10 12  1  0  0  0  0 
 10 29  1  0  0  0  0 
 11 13  2  0  0  0  0 
 11  5  1  0  0  0  0 
 12  6  2  0  0  0  0 
 13  7  1  0  0  0  0 
 14  8  2  0  0  0  0 
 14 12  1  0  0  0  0 
 15 14  1  0  0  0  0 
 15 13  1  0  0  0  0 
 16 15  1  0  0  0  0 
 16 18  1  0  0  0  0 
 17 16  2  0  0  0  0 
 18 33  1  0  0  0  0 
 23  5  1  0  0  0  0 
 26  8  1  0  0  0  0 
 27  9  1  0  0  0  0 
 28  9  1  0  0  0  0 
 30 10  1  0  0  0  0 
 31 15  1  0  0  0  0 
 32 17  1  0  0  0  0 
M  END 
>  <HBA> 
2 
 
>  <HBD> 
1 
 
>  <TPSA> 
43.09 
 
>  <cid> 
23603 
 
>  <dipole> 
4.51 
 
>  <excitation_energy_1> 
5.135 
 
>  <excitation_energy_2> 
5.176 
 
>  <excitation_energy_3> 
5.388 
 
>  <excitation_energy_4> 
5.532 
 
>  <homo_energy> 
-6.596 
 
>  <homo_lumo_gap> 
6.191 
 
>  <logP> 
3.103 
 
>  <lumo_energy> 
-0.405 
 
>  <melting_point> 
144.78 
 
>  <molecular_refractivity> 
71.43 
 
>  <oscillator_strength_1> 
0.001 
 
>  <oscillator_strength_2> 
0.0011 
 
>  <oscillator_strength_3> 
0.0022 
 
>  <oscillator_strength_4> 
0.0165 
 
>  <open_babel_can_smiles> 
OC(=N)C1c2ccccc2CCc2c1cccc2 
 
>  <mulliken_charges> 
33 
1   -0.12062 
2   -0.1199 
3   -0.138638 
4   -0.138487 
5   -0.193 
6   -0.186274 
7   -0.197712 
8   -0.204332 
9   -0.359523 
10   -0.340842 
11   0.127771 
12   0.124785 
13   0.10236 
14   0.069412 
15   -0.321721 
16   0.469791 
17   -0.589875 
18   -0.582088 
19   0.131166 
20   0.13289 
21   0.134221 
22   0.136468 
23   0.124791 
24   0.125509 
25   0.164747 
26   0.169536 
27   0.149794 
28   0.146328 
29   0.16249 
30   0.152766 
31   0.166732 
32   0.287039 
33   0.414418 
 
>  <lowdin_charges> 
33 
1   -0.153516 
2   -0.152623 
3   -0.158396 
4   -0.15996 
5   -0.165247 
6   -0.15977 
7   -0.171925 
8   -0.177397 
9   -0.275643 
10   -0.272282 
11   -0.009787 
12   -0.008876 
13   -0.019161 
14   -0.028216 
15   -0.157311 
16   0.125137 
17   -0.386888 
18   -0.366691 
19   0.158911 
20   0.159893 
21   0.161711 
22   0.162081 
23   0.153754 
24   0.154231 
25   0.171799 
26   0.173595 
27   0.150029 
28   0.154932 
29   0.157781 
30   0.156308 
31   0.166417 
32   0.258448 
33   0.35866 
 
$$$$ 
 
