PCCDB-ID:  39030 
public computational chemistry database (PCCDB) project, http://pccdb.org 
 
 36 37  0  0  1  0  0  0  0  0999 V2000 
    3.2002    0.5479   -0.3194 C   0  0  0  0  0  0  0  0  0  0  0  0 
    2.7174   -0.8628   -0.6845 C   0  0  0  0  0  0  0  0  0  0  0  0 
    2.1407    1.6576   -0.3737 C   0  0  0  0  0  0  0  0  0  0  0  0 
    1.6230   -1.4348    0.2439 C   0  0  0  0  0  0  0  0  0  0  0  0 
    0.9598    1.4764    0.6050 C   0  0  0  0  0  0  0  0  0  0  0  0 
   -2.0850   -1.3206   -0.6636 C   0  0  0  0  0  0  0  0  0  0  0  0 
   -0.7853   -1.7678   -0.4164 C   0  0  0  0  0  0  0  0  0  0  0  0 
   -1.3904    0.9023   -0.0853 C   0  0  0  0  0  0  0  0  0  0  0  0 
   -3.8115    0.5530   -0.7531 C   0  0  0  0  0  0  0  0  0  0  0  0 
   -2.4103    0.0309   -0.5016 C   0  0  0  0  0  0  0  0  0  0  0  0 
    0.2284   -0.8974   -0.0048 C   0  0  0  0  0  0  0  0  0  0  0  0 
   -0.0847    0.4703    0.1644 C   0  0  0  0  0  0  0  0  0  0  0  0 
   -3.9658    1.4752   -1.9947 C   0  0  1  0  0  0  0  0  0  0  0  0 
   -3.8923    0.6933   -3.3258 C   0  0  0  0  0  0  0  0  0  0  0  0 
   -5.1929    2.2535   -1.8713 N   0  0  0  0  0  0  0  0  0  0  0  0 
   -4.7700    0.7291   -4.1552 O   0  0  0  0  0  0  0  0  0  0  0  0 
   -2.7693   -0.0299   -3.5498 O   0  0  0  0  0  0  0  0  0  0  0  0 
    4.0273    0.8198   -0.9887 H   0  0  0  0  0  0  0  0  0  0  0  0 
    3.6274    0.5209    0.6947 H   0  0  0  0  0  0  0  0  0  0  0  0 
    3.5820   -1.5386   -0.6489 H   0  0  0  0  0  0  0  0  0  0  0  0 
    2.3543   -0.8804   -1.7212 H   0  0  0  0  0  0  0  0  0  0  0  0 
    1.7495    1.7552   -1.3958 H   0  0  0  0  0  0  0  0  0  0  0  0 
    2.6340    2.6104   -0.1405 H   0  0  0  0  0  0  0  0  0  0  0  0 
    1.9158   -1.2491    1.2887 H   0  0  0  0  0  0  0  0  0  0  0  0 
    1.5964   -2.5245    0.1280 H   0  0  0  0  0  0  0  0  0  0  0  0 
    0.4665    2.4450    0.7468 H   0  0  0  0  0  0  0  0  0  0  0  0 
    1.3599    1.1939    1.5907 H   0  0  0  0  0  0  0  0  0  0  0  0 
   -2.8487   -2.0274   -0.9796 H   0  0  0  0  0  0  0  0  0  0  0  0 
   -0.5554   -2.8229   -0.5454 H   0  0  0  0  0  0  0  0  0  0  0  0 
   -1.6268    1.9554    0.0597 H   0  0  0  0  0  0  0  0  0  0  0  0 
   -4.1422    1.1554    0.1002 H   0  0  0  0  0  0  0  0  0  0  0  0 
   -4.5130   -0.2867   -0.8390 H   0  0  0  0  0  0  0  0  0  0  0  0 
   -3.1233    2.1815   -1.9939 H   0  0  0  0  0  0  0  0  0  0  0  0 
   -5.9846    1.6105   -1.9234 H   0  0  0  0  0  0  0  0  0  0  0  0 
   -5.2916    2.8289   -2.7076 H   0  0  0  0  0  0  0  0  0  0  0  0 
   -2.1981   -0.0274   -2.7587 H   0  0  0  0  0  0  0  0  0  0  0  0 
  1 19  1  0  0  0  0 
  2 20  1  0  0  0  0 
  2  1  1  0  0  0  0 
  2  4  1  0  0  0  0 
  3  1  1  0  0  0  0 
  3 23  1  0  0  0  0 
  3  5  1  0  0  0  0 
  4 24  1  0  0  0  0 
  5 26  1  0  0  0  0 
  5 27  1  0  0  0  0 
  6 10  2  0  0  0  0 
  6  7  1  0  0  0  0 
  7 11  2  0  0  0  0 
  8 30  1  0  0  0  0 
  8 12  2  0  0  0  0 
  9 10  1  0  0  0  0 
  9 31  1  0  0  0  0 
 10  8  1  0  0  0  0 
 11 12  1  0  0  0  0 
 11  4  1  0  0  0  0 
 12  5  1  0  0  0  0 
 13 33  1  1  0  0  0 
 13 15  1  0  0  0  0 
 13  9  1  0  0  0  0 
 14 13  1  0  0  0  0 
 16 14  2  0  0  0  0 
 17 14  1  0  0  0  0 
 17 36  1  0  0  0  0 
 18  1  1  0  0  0  0 
 21  2  1  0  0  0  0 
 22  3  1  0  0  0  0 
 25  4  1  0  0  0  0 
 28  6  1  0  0  0  0 
 29  7  1  0  0  0  0 
 32  9  1  0  0  0  0 
 34 15  1  0  0  0  0 
 35 15  1  0  0  0  0 
M  END 
>  <HBA> 
3 
 
>  <HBD> 
2 
 
>  <TPSA> 
63.32 
 
>  <cid> 
39030 
 
>  <dipole> 
4.55 
 
>  <excitation_energy_1> 
5.079 
 
>  <excitation_energy_2> 
5.429 
 
>  <excitation_energy_3> 
5.611 
 
>  <excitation_energy_4> 
5.709 
 
>  <homo_energy> 
-6.555 
 
>  <homo_lumo_gap> 
6.085 
 
>  <logP> 
2.61 
 
>  <lumo_energy> 
-0.471 
 
>  <melting_point> 
167.49 
 
>  <molecular_refractivity> 
67.74 
 
>  <oscillator_strength_1> 
0.0109 
 
>  <oscillator_strength_2> 
0.0403 
 
>  <oscillator_strength_3> 
0.0393 
 
>  <oscillator_strength_4> 
0.0139 
 
>  <open_babel_can_smiles> 
N[C@H](C(=O)O)Cc1ccc2c(c1)CCCCC2 
 
>  <mulliken_charges> 
36 
1   -0.2598 
2   -0.251664 
3   -0.251134 
4   -0.354204 
5   -0.355018 
6   -0.195276 
7   -0.187673 
8   -0.250198 
9   -0.344936 
10   0.105275 
11   0.131515 
12   0.138926 
13   -0.106391 
14   0.569408 
15   -0.693232 
16   -0.451713 
17   -0.574375 
18   0.136071 
19   0.129134 
20   0.136749 
21   0.138614 
22   0.136822 
23   0.136967 
24   0.146713 
25   0.143417 
26   0.143573 
27   0.147486 
28   0.138752 
29   0.131628 
30   0.130378 
31   0.183049 
32   0.152372 
33   0.162498 
34   0.303653 
35   0.311064 
36   0.421548 
 
>  <lowdin_charges> 
36 
1   -0.277595 
2   -0.274194 
3   -0.273882 
4   -0.273514 
5   -0.275986 
6   -0.179382 
7   -0.162265 
8   -0.177601 
9   -0.278987 
10   -0.033853 
11   -0.007653 
12   -0.0054 
13   -0.114199 
14   0.172372 
15   -0.532525 
16   -0.253167 
17   -0.359099 
18   0.147204 
19   0.136843 
20   0.147564 
21   0.14264 
22   0.14206 
23   0.147073 
24   0.14905 
25   0.149781 
26   0.151447 
27   0.150358 
28   0.162941 
29   0.156899 
30   0.154693 
31   0.173695 
32   0.154438 
33   0.157275 
34   0.260037 
35   0.264014 
36   0.358918 
 
$$$$ 
 
