PCCDB-ID:  20139 
public computational chemistry database (PCCDB) project, http://pccdb.org 
 
 25 25  0  0  0  0  0  0  0  0999 V2000 
    0.9521    0.1035    0.0297 C   0  0  0  0  0  0  0  0  0  0  0  0 
    5.2530    2.7225   -0.1257 C   0  0  0  0  0  0  0  0  0  0  0  0 
    5.3382   -2.3853   -0.0308 C   0  0  0  0  0  0  0  0  0  0  0  0 
    3.1663    1.3302   -0.0608 C   0  0  0  0  0  0  0  0  0  0  0  0 
    3.1977   -1.0640   -0.0125 C   0  0  0  0  0  0  0  0  0  0  0  0 
    6.8053    0.1550   -0.0640 C   0  0  0  0  0  0  0  0  0  0  0  0 
    2.4621    0.1261   -0.0220 C   0  0  0  0  0  0  0  0  0  0  0  0 
    4.5665    1.3705   -0.0829 C   0  0  0  0  0  0  0  0  0  0  0  0 
    4.5936   -1.0681   -0.0362 C   0  0  0  0  0  0  0  0  0  0  0  0 
    5.2901    0.1611   -0.0755 C   0  0  0  0  0  0  0  0  0  0  0  0 
    7.3552   -0.2444    1.2004 O   0  0  0  0  0  0  0  0  0  0  0  0 
    0.5259    1.0645   -0.2762 H   0  0  0  0  0  0  0  0  0  0  0  0 
    0.5907   -0.1077    1.0451 H   0  0  0  0  0  0  0  0  0  0  0  0 
    0.5400   -0.6731   -0.6248 H   0  0  0  0  0  0  0  0  0  0  0  0 
    4.5177    3.5281   -0.0389 H   0  0  0  0  0  0  0  0  0  0  0  0 
    5.7991    2.8788   -1.0644 H   0  0  0  0  0  0  0  0  0  0  0  0 
    5.9761    2.8505    0.6888 H   0  0  0  0  0  0  0  0  0  0  0  0 
    4.6551   -3.2198    0.1539 H   0  0  0  0  0  0  0  0  0  0  0  0 
    6.1200   -2.3942    0.7342 H   0  0  0  0  0  0  0  0  0  0  0  0 
    5.8308   -2.5715   -0.9952 H   0  0  0  0  0  0  0  0  0  0  0  0 
    2.6133    2.2676   -0.0710 H   0  0  0  0  0  0  0  0  0  0  0  0 
    2.6691   -2.0154    0.0144 H   0  0  0  0  0  0  0  0  0  0  0  0 
    7.2032    1.1339   -0.3586 H   0  0  0  0  0  0  0  0  0  0  0  0 
    7.1955   -0.5753   -0.7798 H   0  0  0  0  0  0  0  0  0  0  0  0 
    6.8917    0.2661    1.8829 H   0  0  0  0  0  0  0  0  0  0  0  0 
  1 13  1  0  0  0  0 
  2  8  1  0  0  0  0 
  2 15  1  0  0  0  0 
  2 17  1  0  0  0  0 
  3 18  1  0  0  0  0 
  3 19  1  0  0  0  0 
  4  7  2  0  0  0  0 
  5 22  1  0  0  0  0 
  6 11  1  0  0  0  0 
  7  5  1  0  0  0  0 
  7  1  1  0  0  0  0 
  8 10  2  0  0  0  0 
  8  4  1  0  0  0  0 
  9  3  1  0  0  0  0 
  9  5  2  0  0  0  0 
 10  6  1  0  0  0  0 
 10  9  1  0  0  0  0 
 11 25  1  0  0  0  0 
 12  1  1  0  0  0  0 
 14  1  1  0  0  0  0 
 16  2  1  0  0  0  0 
 20  3  1  0  0  0  0 
 21  4  1  0  0  0  0 
 23  6  1  0  0  0  0 
 24  6  1  0  0  0  0 
M  END 
>  <HBA> 
1 
 
>  <HBD> 
1 
 
>  <TPSA> 
20.23 
 
>  <cid> 
20139 
 
>  <dipole> 
1.69 
 
>  <excitation_energy_1> 
4.995 
 
>  <excitation_energy_2> 
5.425 
 
>  <excitation_energy_3> 
5.859 
 
>  <excitation_energy_4> 
5.924 
 
>  <homo_energy> 
-6.212 
 
>  <homo_lumo_gap> 
6.041 
 
>  <logP> 
2.104 
 
>  <lumo_energy> 
-0.171 
 
>  <melting_point> 
40.29 
 
>  <molecular_refractivity> 
47.47 
 
>  <oscillator_strength_1> 
0.0059 
 
>  <oscillator_strength_2> 
0.1014 
 
>  <oscillator_strength_3> 
0.007 
 
>  <oscillator_strength_4> 
0.0263 
 
>  <open_babel_can_smiles> 
OCc1c(C)cc(cc1C)C 
 
>  <mulliken_charges> 
25 
1   -0.532123 
2   -0.538247 
3   -0.54503 
4   -0.252665 
5   -0.247975 
6   -0.100678 
7   0.202913 
8   0.142308 
9   0.154231 
10   -0.007542 
11   -0.613179 
12   0.15474 
13   0.164141 
14   0.158738 
15   0.156761 
16   0.165671 
17   0.154057 
18   0.149326 
19   0.187685 
20   0.157384 
21   0.111175 
22   0.112557 
23   0.129977 
24   0.149223 
25   0.38655 
 
>  <lowdin_charges> 
25 
1   -0.442511 
2   -0.446445 
3   -0.450378 
4   -0.187831 
5   -0.18351 
6   -0.13589 
7   0.006292 
8   -0.005888 
9   0.008876 
10   -0.060032 
11   -0.472866 
12   0.156534 
13   0.160659 
14   0.160111 
15   0.158217 
16   0.160361 
17   0.155544 
18   0.155217 
19   0.173173 
20   0.157726 
21   0.149896 
22   0.150591 
23   0.137163 
24   0.153136 
25   0.341855 
 
$$$$ 
 
