PCCDB-ID:  28018 
public computational chemistry database (PCCDB) project, http://pccdb.org 
 
 21 21  0  0  0  0  0  0  0  0999 V2000 
    1.2866   -0.9066   -0.4869 C   0  0  0  0  0  0  0  0  0  0  0  0 
    5.0227   -1.6189   -0.0807 C   0  0  0  0  0  0  0  0  0  0  0  0 
    5.5378   -0.3311    0.0287 C   0  0  0  0  0  0  0  0  0  0  0  0 
    3.6462   -1.7864   -0.2544 C   0  0  0  0  0  0  0  0  0  0  0  0 
    4.6905    0.7765   -0.0429 C   0  0  0  0  0  0  0  0  0  0  0  0 
    1.8451    4.0129   -0.4558 C   0  0  0  0  0  0  0  0  0  0  0  0 
    2.9458    3.0445   -0.3686 C   0  0  0  0  0  0  0  0  0  0  0  0 
    2.7726   -0.7016   -0.3201 C   0  0  0  0  0  0  0  0  0  0  0  0 
    3.3085    0.6060   -0.2132 C   0  0  0  0  0  0  0  0  0  0  0  0 
    0.9752    4.7746   -0.5481 N   0  0  0  0  0  0  0  0  0  0  0  0 
    2.4222    1.6954   -0.2385 N   0  0  0  0  0  0  0  0  0  0  0  0 
    1.0362   -1.9711   -0.4772 H   0  0  0  0  0  0  0  0  0  0  0  0 
    0.9120   -0.4977   -1.4379 H   0  0  0  0  0  0  0  0  0  0  0  0 
    0.7194   -0.4193    0.3169 H   0  0  0  0  0  0  0  0  0  0  0  0 
    5.6770   -2.4841   -0.0298 H   0  0  0  0  0  0  0  0  0  0  0  0 
    6.6049   -0.1749    0.1629 H   0  0  0  0  0  0  0  0  0  0  0  0 
    3.2332   -2.7894   -0.3369 H   0  0  0  0  0  0  0  0  0  0  0  0 
    5.1175    1.7709    0.0368 H   0  0  0  0  0  0  0  0  0  0  0  0 
    3.5488    3.2916    0.5143 H   0  0  0  0  0  0  0  0  0  0  0  0 
    3.5999    3.1824   -1.2482 H   0  0  0  0  0  0  0  0  0  0  0  0 
    1.5910    1.5384   -0.7945 H   0  0  0  0  0  0  0  0  0  0  0  0 
  1 12  1  0  0  0  0 
  1  8  1  0  0  0  0 
  1 14  1  0  0  0  0 
  2 15  1  0  0  0  0 
  2  3  2  0  0  0  0 
  3 16  1  0  0  0  0 
  4  2  1  0  0  0  0 
  5  3  1  0  0  0  0 
  5 18  1  0  0  0  0 
  6  7  1  0  0  0  0 
  7 11  1  0  0  0  0 
  7 19  1  0  0  0  0 
  8  4  2  0  0  0  0 
  8  9  1  0  0  0  0 
  9  5  2  0  0  0  0 
 10  6  3  0  0  0  0 
 11  9  1  0  0  0  0 
 13  1  1  0  0  0  0 
 17  4  1  0  0  0  0 
 20  7  1  0  0  0  0 
 21 11  1  0  0  0  0 
M  END 
>  <HBA> 
2 
 
>  <HBD> 
1 
 
>  <TPSA> 
35.82 
 
>  <cid> 
28018 
 
>  <dipole> 
2.77 
 
>  <excitation_energy_1> 
4.802 
 
>  <excitation_energy_2> 
4.823 
 
>  <excitation_energy_3> 
5.215 
 
>  <excitation_energy_4> 
5.408 
 
>  <homo_energy> 
-5.736 
 
>  <homo_lumo_gap> 
5.682 
 
>  <logP> 
2.003 
 
>  <lumo_energy> 
-0.054 
 
>  <melting_point> 
75.94 
 
>  <molecular_refractivity> 
45.27 
 
>  <oscillator_strength_1> 
0.0405 
 
>  <oscillator_strength_2> 
0.0084 
 
>  <oscillator_strength_3> 
0.0265 
 
>  <oscillator_strength_4> 
0.1412 
 
>  <open_babel_can_smiles> 
N#CCNc1ccccc1C 
 
>  <mulliken_charges> 
21 
1   -0.556463 
2   -0.126953 
3   -0.143905 
4   -0.198358 
5   -0.182152 
6   0.336939 
7   -0.156309 
8   0.153464 
9   0.287097 
10   -0.464631 
11   -0.671792 
12   0.164462 
13   0.152868 
14   0.173195 
15   0.125328 
16   0.128246 
17   0.122897 
18   0.124764 
19   0.207297 
20   0.189206 
21   0.3348 
 
>  <lowdin_charges> 
21 
1   -0.446825 
2   -0.180127 
3   -0.147207 
4   -0.156581 
5   -0.208648 
6   -0.018909 
7   -0.188181 
8   -0.02966 
9   0.044249 
10   -0.107327 
11   -0.298201 
12   0.162405 
13   0.151966 
14   0.164208 
15   0.15807 
16   0.155898 
17   0.154649 
18   0.155294 
19   0.184548 
20   0.166454 
21   0.283924 
 
$$$$ 
 
