PCCDB-ID:  19998 
public computational chemistry database (PCCDB) project, http://pccdb.org 
 
 29 30  0  0  0  0  0  0  0  0999 V2000 
    0.8269    1.1847   -0.2690 C   0  0  0  0  0  0  0  0  0  0  0  0 
   -0.3592   -0.1587   -9.3224 C   0  0  0  0  0  0  0  0  0  0  0  0 
    0.5418    0.8460   -8.9649 C   0  0  0  0  0  0  0  0  0  0  0  0 
   -0.7422   -1.1057   -8.3707 C   0  0  0  0  0  0  0  0  0  0  0  0 
    1.0554    0.9019   -7.6701 C   0  0  0  0  0  0  0  0  0  0  0  0 
   -0.2312   -1.0465   -7.0751 C   0  0  0  0  0  0  0  0  0  0  0  0 
    1.5319   -1.1523   -4.6048 C   0  0  0  0  0  0  0  0  0  0  0  0 
    1.4507    1.2469   -4.6788 C   0  0  0  0  0  0  0  0  0  0  0  0 
    2.0451   -1.1013   -3.3140 C   0  0  0  0  0  0  0  0  0  0  0  0 
    1.9542    1.3074   -3.3816 C   0  0  0  0  0  0  0  0  0  0  0  0 
    2.2340    0.6377   -0.3791 C   0  0  0  0  0  0  0  0  0  0  0  0 
    0.6779   -0.0421   -6.6992 C   0  0  0  0  0  0  0  0  0  0  0  0 
    1.2207    0.0188   -5.3193 C   0  0  0  0  0  0  0  0  0  0  0  0 
    2.2473    0.1313   -2.6706 C   0  0  0  0  0  0  0  0  0  0  0  0 
    2.8209    0.1504   -1.3922 N   0  0  0  0  0  0  0  0  0  0  0  0 
    2.9475    0.6494    0.7838 O   0  0  0  0  0  0  0  0  0  0  0  0 
    0.2888    1.0850   -1.2122 H   0  0  0  0  0  0  0  0  0  0  0  0 
    0.8437    2.2453    0.0115 H   0  0  0  0  0  0  0  0  0  0  0  0 
    0.2754    0.6429    0.5102 H   0  0  0  0  0  0  0  0  0  0  0  0 
   -0.7579   -0.2039  -10.3323 H   0  0  0  0  0  0  0  0  0  0  0  0 
    0.8555    1.5833   -9.6995 H   0  0  0  0  0  0  0  0  0  0  0  0 
   -1.4490   -1.8884   -8.6344 H   0  0  0  0  0  0  0  0  0  0  0  0 
    1.7798    1.6698   -7.4131 H   0  0  0  0  0  0  0  0  0  0  0  0 
   -0.5580   -1.7726   -6.3358 H   0  0  0  0  0  0  0  0  0  0  0  0 
    1.3995   -2.1193   -5.0824 H   0  0  0  0  0  0  0  0  0  0  0  0 
    1.2090    2.1724   -5.1946 H   0  0  0  0  0  0  0  0  0  0  0  0 
    2.3039   -2.0142   -2.7859 H   0  0  0  0  0  0  0  0  0  0  0  0 
    2.1360    2.2710   -2.9133 H   0  0  0  0  0  0  0  0  0  0  0  0 
    2.3926    1.0044    1.4951 H   0  0  0  0  0  0  0  0  0  0  0  0 
  1 18  1  0  0  0  0 
  1 19  1  0  0  0  0 
  2  3  2  0  0  0  0 
  2  4  1  0  0  0  0 
  3  5  1  0  0  0  0 
  4  6  2  0  0  0  0 
  5 23  1  0  0  0  0 
  5 12  2  0  0  0  0 
  6 12  1  0  0  0  0 
  6 24  1  0  0  0  0 
  7  9  2  0  0  0  0 
  8 10  1  0  0  0  0 
  9 27  1  0  0  0  0 
  9 14  1  0  0  0  0 
 10 28  1  0  0  0  0 
 10 14  2  0  0  0  0 
 11  1  1  0  0  0  0 
 11 16  1  0  0  0  0 
 12 13  1  0  0  0  0 
 13  8  2  0  0  0  0 
 13  7  1  0  0  0  0 
 14 15  1  0  0  0  0 
 15 11  2  0  0  0  0 
 16 29  1  0  0  0  0 
 17  1  1  0  0  0  0 
 20  2  1  0  0  0  0 
 21  3  1  0  0  0  0 
 22  4  1  0  0  0  0 
 25  7  1  0  0  0  0 
 26  8  1  0  0  0  0 
M  END 
>  <HBA> 
2 
 
>  <HBD> 
1 
 
>  <TPSA> 
29.1 
 
>  <cid> 
19998 
 
>  <dipole> 
3.85 
 
>  <excitation_energy_1> 
4.337 
 
>  <excitation_energy_2> 
4.588 
 
>  <excitation_energy_3> 
4.738 
 
>  <excitation_energy_4> 
4.787 
 
>  <homo_energy> 
-5.497 
 
>  <homo_lumo_gap> 
4.89 
 
>  <logP> 
3.385 
 
>  <lumo_energy> 
-0.607 
 
>  <melting_point> 
96.87 
 
>  <molecular_refractivity> 
66.19 
 
>  <oscillator_strength_1> 
0.5832 
 
>  <oscillator_strength_2> 
0.0357 
 
>  <oscillator_strength_3> 
0.0163 
 
>  <oscillator_strength_4> 
0.001 
 
>  <open_babel_can_smiles> 
C/C(=N\c1ccc(cc1)c1ccccc1)/O 
 
>  <mulliken_charges> 
29 
1   -0.555588 
2   -0.127898 
3   -0.133865 
4   -0.133737 
5   -0.175669 
6   -0.175652 
7   -0.185195 
8   -0.186121 
9   -0.156019 
10   -0.163065 
11   0.482572 
12   0.090692 
13   0.09076 
14   0.242348 
15   -0.465162 
16   -0.568953 
17   0.199657 
18   0.176381 
19   0.171505 
20   0.12717 
21   0.12829 
22   0.127964 
23   0.130836 
24   0.129076 
25   0.132438 
26   0.130468 
27   0.133964 
28   0.124464 
29   0.408339 
 
>  <lowdin_charges> 
29 
1   -0.483629 
2   -0.159901 
3   -0.156483 
4   -0.155488 
5   -0.163828 
6   -0.165417 
7   -0.156034 
8   -0.158448 
9   -0.172992 
10   -0.188084 
11   0.148067 
12   0.000478 
13   -0.015656 
14   0.048996 
15   -0.170677 
16   -0.360945 
17   0.184883 
18   0.169121 
19   0.169315 
20   0.155973 
21   0.158055 
22   0.157434 
23   0.159082 
24   0.158872 
25   0.159503 
26   0.158999 
27   0.164049 
28   0.156781 
29   0.357973 
 
$$$$ 
 
