PCCDB-ID:  37182 
public computational chemistry database (PCCDB) project, http://pccdb.org 
 
 21 21  0  0  0  0  0  0  0  0999 V2000 
    0.8644   -0.2058    0.0684 C   0  0  0  0  0  0  0  0  0  0  0  0 
    4.5291   -1.2496    0.0867 C   0  0  0  0  0  0  0  0  0  0  0  0 
    4.4778    1.1771   -0.0300 C   0  0  0  0  0  0  0  0  0  0  0  0 
    2.3678   -0.0959    0.0995 C   0  0  0  0  0  0  0  0  0  0  0  0 
    5.1718   -0.0222   -0.0041 C   0  0  0  0  0  0  0  0  0  0  0  0 
    3.1299   -1.2960    0.1348 C   0  0  0  0  0  0  0  0  0  0  0  0 
    3.0885    1.1068    0.0446 C   0  0  0  0  0  0  0  0  0  0  0  0 
    2.4816   -2.5258    0.1544 N   0  0  0  0  0  0  0  0  0  0  0  0 
    6.6436    0.0024   -0.0596 N   0  0  0  0  0  0  0  0  0  0  0  0 
    2.3964    2.4121    0.0762 N   0  0  0  0  0  0  0  0  0  0  0  0 
    7.2296   -1.0792   -0.0267 O   0  0  0  0  0  0  0  0  0  0  0  0 
    7.1931    1.0989   -0.1356 O   0  0  0  0  0  0  0  0  0  0  0  0 
    2.9230    3.3433   -0.5281 O   0  0  0  0  0  0  0  0  0  0  0  0 
    1.3560    2.4983    0.7291 O   0  0  0  0  0  0  0  0  0  0  0  0 
    0.4593   -0.4084    1.0697 H   0  0  0  0  0  0  0  0  0  0  0  0 
    0.5726   -1.0330   -0.5886 H   0  0  0  0  0  0  0  0  0  0  0  0 
    0.3856    0.7064   -0.2802 H   0  0  0  0  0  0  0  0  0  0  0  0 
    5.1220   -2.1568    0.1141 H   0  0  0  0  0  0  0  0  0  0  0  0 
    4.9884    2.1266   -0.0982 H   0  0  0  0  0  0  0  0  0  0  0  0 
    3.0709   -3.3198    0.3694 H   0  0  0  0  0  0  0  0  0  0  0  0 
    1.5982   -2.5630    0.6446 H   0  0  0  0  0  0  0  0  0  0  0  0 
  1  4  1  0  0  0  0 
  1 15  1  0  0  0  0 
  2 18  1  0  0  0  0 
  2  6  2  0  0  0  0 
  3  5  2  0  0  0  0 
  3  7  1  0  0  0  0 
  4  6  1  0  0  0  0 
  5  2  1  0  0  0  0 
  6  8  1  0  0  0  0 
  7 10  1  0  0  0  0 
  7  4  2  0  0  0  0 
  8 20  1  0  0  0  0 
  8 21  1  0  0  0  0 
  9 11  2  0  0  0  0 
  9  5  1  0  0  0  0 
 10 14  2  0  0  0  0 
 12  9  2  0  0  0  0 
 13 10  2  0  0  0  0 
 16  1  1  0  0  0  0 
 17  1  1  0  0  0  0 
 19  3  1  0  0  0  0 
M  END 
>  <HBA> 
1 
 
>  <HBD> 
1 
 
>  <TPSA> 
117.66 
 
>  <cid> 
37182 
 
>  <dipole> 
6.46 
 
>  <excitation_energy_1> 
3.22 
 
>  <excitation_energy_2> 
3.438 
 
>  <excitation_energy_3> 
3.734 
 
>  <excitation_energy_4> 
3.748 
 
>  <homo_energy> 
-6.7 
 
>  <homo_lumo_gap> 
3.916 
 
>  <logP> 
3.021 
 
>  <lumo_energy> 
-2.784 
 
>  <melting_point> 
136.91 
 
>  <molecular_refractivity> 
53.46 
 
>  <oscillator_strength_1> 
0.0505 
 
>  <oscillator_strength_2> 
0.0026 
 
>  <oscillator_strength_3> 
0.0144 
 
>  <oscillator_strength_4> 
0.0 
 
>  <open_babel_can_smiles> 
O=N(=O)c1cc(N)c(c(c1)N(=O)=O)C 
 
>  <mulliken_charges> 
21 
1   -0.547653 
2   -0.187753 
3   -0.177349 
4   0.170711 
5   0.268894 
6   0.254812 
7   0.182028 
8   -0.796792 
9   0.380298 
10   0.355639 
11   -0.393028 
12   -0.383443 
13   -0.367135 
14   -0.382814 
15   0.177641 
16   0.174221 
17   0.197839 
18   0.181647 
19   0.215484 
20   0.337785 
21   0.338965 
 
>  <lowdin_charges> 
21 
1   -0.450349 
2   -0.169721 
3   -0.151623 
4   4.8e-05 
5   0.012608 
6   0.061593 
7   0.011572 
8   -0.474168 
9   0.310767 
10   0.307175 
11   -0.24449 
12   -0.234071 
13   -0.231567 
14   -0.238277 
15   0.170464 
16   0.166935 
17   0.183344 
18   0.188294 
19   0.208072 
20   0.286614 
21   0.286778 
 
$$$$ 
 
