PCCDB-ID:  32366 
public computational chemistry database (PCCDB) project, http://pccdb.org 
 
 27 28  0  0  0  0  0  0  0  0999 V2000 
    3.5202    0.0824    1.2478 C   0  0  0  0  0  0  0  0  0  0  0  0 
    2.5299   -1.4268   -0.5100 C   0  0  0  0  0  0  0  0  0  0  0  0 
    1.0863    0.3086    0.6084 C   0  0  0  0  0  0  0  0  0  0  0  0 
    4.0538    3.5369   -4.5120 C   0  0  0  0  0  0  0  0  0  0  0  0 
    3.8871    4.5770   -3.5764 C   0  0  0  0  0  0  0  0  0  0  0  0 
    3.8457    2.2063   -4.1604 C   0  0  0  0  0  0  0  0  0  0  0  0 
    3.5073    4.3192   -2.2607 C   0  0  0  0  0  0  0  0  0  0  0  0 
    3.4640    1.9242   -2.8435 C   0  0  0  0  0  0  0  0  0  0  0  0 
    3.3021    2.9821   -1.9173 C   0  0  0  0  0  0  0  0  0  0  0  0 
    2.8824    0.9911   -0.9936 C   0  0  0  0  0  0  0  0  0  0  0  0 
    2.5064   -0.0073    0.0824 C   0  0  0  0  0  0  0  0  0  0  0  0 
    3.1954    0.7043   -2.2352 N   0  0  0  0  0  0  0  0  0  0  0  0 
    2.9293    2.3531   -0.7421 N   0  0  0  0  0  0  0  0  0  0  0  0 
    3.2588   -0.6387    2.0309 H   0  0  0  0  0  0  0  0  0  0  0  0 
    3.5325    1.0782    1.7074 H   0  0  0  0  0  0  0  0  0  0  0  0 
    4.5354   -0.1412    0.9028 H   0  0  0  0  0  0  0  0  0  0  0  0 
    2.2680   -2.1555    0.2661 H   0  0  0  0  0  0  0  0  0  0  0  0 
    3.5199   -1.6730   -0.9035 H   0  0  0  0  0  0  0  0  0  0  0  0 
    1.8178   -1.5214   -1.3346 H   0  0  0  0  0  0  0  0  0  0  0  0 
    0.7957   -0.4242    1.3700 H   0  0  0  0  0  0  0  0  0  0  0  0 
    0.3496    0.2702   -0.2012 H   0  0  0  0  0  0  0  0  0  0  0  0 
    1.0287    1.3025    1.0692 H   0  0  0  0  0  0  0  0  0  0  0  0 
    4.3507    3.7829   -5.5278 H   0  0  0  0  0  0  0  0  0  0  0  0 
    4.0582    5.6042   -3.8867 H   0  0  0  0  0  0  0  0  0  0  0  0 
    3.9732    1.4001   -4.8764 H   0  0  0  0  0  0  0  0  0  0  0  0 
    3.3788    5.1249   -1.5429 H   0  0  0  0  0  0  0  0  0  0  0  0 
    2.7283    2.8031    0.1379 H   0  0  0  0  0  0  0  0  0  0  0  0 
  1 15  1  0  0  0  0 
  1 14  1  0  0  0  0 
  2 11  1  0  0  0  0 
  2 17  1  0  0  0  0 
  3 22  1  0  0  0  0 
  3 20  1  0  0  0  0 
  4  6  2  0  0  0  0 
  4  5  1  0  0  0  0 
  5  7  2  0  0  0  0 
  6  8  1  0  0  0  0 
  7  9  1  0  0  0  0 
  7 26  1  0  0  0  0 
  8 12  1  0  0  0  0 
  8  9  2  0  0  0  0 
  9 13  1  0  0  0  0 
 10 13  1  0  0  0  0 
 10 11  1  0  0  0  0 
 11  3  1  0  0  0  0 
 11  1  1  0  0  0  0 
 12 10  2  0  0  0  0 
 13 27  1  0  0  0  0 
 16  1  1  0  0  0  0 
 18  2  1  0  0  0  0 
 19  2  1  0  0  0  0 
 21  3  1  0  0  0  0 
 23  4  1  0  0  0  0 
 24  5  1  0  0  0  0 
 25  6  1  0  0  0  0 
M  END 
>  <HBA> 
1 
 
>  <HBD> 
1 
 
>  <TPSA> 
28.68 
 
>  <cid> 
32366 
 
>  <dipole> 
3.25 
 
>  <excitation_energy_1> 
4.94 
 
>  <excitation_energy_2> 
5.19 
 
>  <excitation_energy_3> 
5.206 
 
>  <excitation_energy_4> 
5.29 
 
>  <homo_energy> 
-5.872 
 
>  <homo_lumo_gap> 
5.665 
 
>  <logP> 
2.86 
 
>  <lumo_energy> 
-0.207 
 
>  <melting_point> 
120.22 
 
>  <molecular_refractivity> 
55.36 
 
>  <oscillator_strength_1> 
0.0954 
 
>  <oscillator_strength_2> 
0.1198 
 
>  <oscillator_strength_3> 
0.0018 
 
>  <oscillator_strength_4> 
0.0 
 
>  <open_babel_can_smiles> 
CC(c1nc2c([nH]1)cccc2)(C)C 
 
>  <mulliken_charges> 
27 
1   -0.442563 
2   -0.431575 
3   -0.443143 
4   -0.143914 
5   -0.149475 
6   -0.181555 
7   -0.175772 
8   0.231279 
9   0.356046 
10   0.535287 
11   0.000556 
12   -0.566401 
13   -0.750038 
14   0.149391 
15   0.126848 
16   0.160974 
17   0.130811 
18   0.161738 
19   0.160308 
20   0.149761 
21   0.160831 
22   0.126426 
23   0.123228 
24   0.124109 
25   0.136093 
26   0.123296 
27   0.327454 
 
>  <lowdin_charges> 
27 
1   -0.438577 
2   -0.434523 
3   -0.440283 
4   -0.171603 
5   -0.161529 
6   -0.159952 
7   -0.190875 
8   0.009228 
9   0.02005 
10   0.082894 
11   0.007859 
12   -0.205469 
13   -0.21273 
14   0.153614 
15   0.139807 
16   0.157589 
17   0.145592 
18   0.160898 
19   0.161138 
20   0.154002 
21   0.158845 
22   0.139535 
23   0.155196 
24   0.15525 
25   0.165855 
26   0.157078 
27   0.291109 
 
$$$$ 
 
