PCCDB-ID:  29736 
public computational chemistry database (PCCDB) project, http://pccdb.org 
 
 29 30  0  0  0  0  0  0  0  0999 V2000 
    3.5126    0.2450   -1.2071 C   0  0  0  0  0  0  0  0  0  0  0  0 
    1.9824   -5.6223    0.4220 C   0  0  0  0  0  0  0  0  0  0  0  0 
    3.2969   -6.5525    3.3101 C   0  0  0  0  0  0  0  0  0  0  0  0 
    2.5047    0.1396   -0.0463 C   0  0  0  0  0  0  0  0  0  0  0  0 
    3.4380   -0.7306    2.1449 C   0  0  0  0  0  0  0  0  0  0  0  0 
    2.6194   -4.7898    1.4945 C   0  0  0  0  0  0  0  0  0  0  0  0 
    3.1519   -5.2136    2.6763 C   0  0  0  0  0  0  0  0  0  0  0  0 
    2.7977   -0.9988    0.9126 C   0  0  0  0  0  0  0  0  0  0  0  0 
    3.7712   -1.7294    3.0548 C   0  0  0  0  0  0  0  0  0  0  0  0 
    2.7944   -3.3499    1.4821 C   0  0  0  0  0  0  0  0  0  0  0  0 
    2.4746   -2.3185    0.5814 C   0  0  0  0  0  0  0  0  0  0  0  0 
    3.4312   -3.0328    2.6872 C   0  0  0  0  0  0  0  0  0  0  0  0 
    4.3901   -1.5159    4.2582 O   0  0  0  0  0  0  0  0  0  0  0  0 
    1.8546   -2.6771   -0.5950 O   0  0  0  0  0  0  0  0  0  0  0  0 
    3.6533   -4.1612    3.4211 O   0  0  0  0  0  0  0  0  0  0  0  0 
    3.2617    1.0782   -1.8739 H   0  0  0  0  0  0  0  0  0  0  0  0 
    3.5342   -0.6741   -1.8043 H   0  0  0  0  0  0  0  0  0  0  0  0 
    4.5252    0.4062   -0.8227 H   0  0  0  0  0  0  0  0  0  0  0  0 
    1.9796   -6.6838    0.6885 H   0  0  0  0  0  0  0  0  0  0  0  0 
    2.5109   -5.5135   -0.5319 H   0  0  0  0  0  0  0  0  0  0  0  0 
    0.9459   -5.3145    0.2435 H   0  0  0  0  0  0  0  0  0  0  0  0 
    2.8782   -7.3301    2.6666 H   0  0  0  0  0  0  0  0  0  0  0  0 
    2.7793   -6.5906    4.2767 H   0  0  0  0  0  0  0  0  0  0  0  0 
    4.3517   -6.7907    3.4953 H   0  0  0  0  0  0  0  0  0  0  0  0 
    1.4850    0.0492   -0.4551 H   0  0  0  0  0  0  0  0  0  0  0  0 
    2.4991    1.0830    0.5118 H   0  0  0  0  0  0  0  0  0  0  0  0 
    3.6791    0.3033    2.3885 H   0  0  0  0  0  0  0  0  0  0  0  0 
    4.5465   -0.5639    4.3541 H   0  0  0  0  0  0  0  0  0  0  0  0 
    1.6201   -1.8735   -1.0822 H   0  0  0  0  0  0  0  0  0  0  0  0 
  1 18  1  0  0  0  0 
  1  4  1  0  0  0  0 
  2 19  1  0  0  0  0 
  2  6  1  0  0  0  0 
  3 24  1  0  0  0  0 
  3 23  1  0  0  0  0 
  4 26  1  0  0  0  0 
  4  8  1  0  0  0  0 
  5 27  1  0  0  0  0 
  5  9  2  0  0  0  0 
  6  7  2  0  0  0  0 
  7  3  1  0  0  0  0 
  7 15  1  0  0  0  0 
  8  5  1  0  0  0  0 
  9 13  1  0  0  0  0 
 10  6  1  0  0  0  0 
 10 12  2  0  0  0  0 
 11  8  2  0  0  0  0 
 11 10  1  0  0  0  0 
 12  9  1  0  0  0  0 
 12 15  1  0  0  0  0 
 13 28  1  0  0  0  0 
 14 11  1  0  0  0  0 
 16  1  1  0  0  0  0 
 17  1  1  0  0  0  0 
 20  2  1  0  0  0  0 
 21  2  1  0  0  0  0 
 22  3  1  0  0  0  0 
 25  4  1  0  0  0  0 
 29 14  1  0  0  0  0 
M  END 
>  <HBA> 
3 
 
>  <HBD> 
2 
 
>  <TPSA> 
53.6 
 
>  <cid> 
29736 
 
>  <dipole> 
2.14 
 
>  <excitation_energy_1> 
4.269 
 
>  <excitation_energy_2> 
4.433 
 
>  <excitation_energy_3> 
4.493 
 
>  <excitation_energy_4> 
4.894 
 
>  <homo_energy> 
-4.944 
 
>  <homo_lumo_gap> 
5.078 
 
>  <logP> 
3.023 
 
>  <lumo_energy> 
0.133 
 
>  <melting_point> 
142.68 
 
>  <molecular_refractivity> 
59.97 
 
>  <oscillator_strength_1> 
0.0178 
 
>  <oscillator_strength_2> 
0.0299 
 
>  <oscillator_strength_3> 
0.0856 
 
>  <oscillator_strength_4> 
0.0071 
 
>  <open_babel_can_smiles> 
CCc1cc(O)c2c(c1O)c(C)c(o2)C 
 
>  <mulliken_charges> 
29 
1   -0.435079 
2   -0.514109 
3   -0.538145 
4   -0.384964 
5   -0.292163 
6   0.070448 
7   0.285092 
8   0.170564 
9   0.293042 
10   0.088504 
11   0.153688 
12   0.281184 
13   -0.648357 
14   -0.663969 
15   -0.514485 
16   0.144587 
17   0.148037 
18   0.157314 
19   0.143216 
20   0.167965 
21   0.167397 
22   0.165418 
23   0.172877 
24   0.172861 
25   0.132293 
26   0.151768 
27   0.106003 
28   0.40647 
29   0.412543 
 
>  <lowdin_charges> 
29 
1   -0.446207 
2   -0.431144 
3   -0.44159 
4   -0.275627 
5   -0.224842 
6   -0.05595 
7   0.073359 
8   -0.058816 
9   0.070111 
10   -0.049585 
11   0.074272 
12   0.063968 
13   -0.376928 
14   -0.391869 
15   -0.115448 
16   0.150162 
17   0.1486 
18   0.155013 
19   0.15036 
20   0.164188 
21   0.163013 
22   0.1674 
23   0.167807 
24   0.166819 
25   0.136887 
26   0.154622 
27   0.149044 
28   0.355906 
29   0.356472 
 
$$$$ 
 
