PCCDB-ID:  72935 
public computational chemistry database (PCCDB) project, http://pccdb.org 
 
 21 21  0  0  0  0  0  0  0  0999 V2000 
    0.7315    1.3309   -0.3428 C   0  0  0  0  0  0  0  0  0  0  0  0 
    1.4862    0.0819    0.1384 C   0  0  0  0  0  0  0  0  0  0  0  0 
   -0.7121    1.3486    0.1844 C   0  0  0  0  0  0  0  0  0  0  0  0 
    0.7333   -1.2088   -0.2311 C   0  0  0  0  0  0  0  0  0  0  0  0 
   -1.4688    0.0640   -0.1918 C   0  0  0  0  0  0  0  0  0  0  0  0 
   -0.7299   -1.2155    0.2548 C   0  0  0  0  0  0  0  0  0  0  0  0 
   -0.7306   -1.4533    1.7121 N   0  0  0  0  0  0  0  0  0  0  0  0 
   -2.1072   -1.4624    2.1688 O   0  0  0  0  0  0  0  0  0  0  0  0 
    0.7124    1.3371   -1.4430 H   0  0  0  0  0  0  0  0  0  0  0  0 
    1.2635    2.2400   -0.0344 H   0  0  0  0  0  0  0  0  0  0  0  0 
    1.6270    0.1377    1.2281 H   0  0  0  0  0  0  0  0  0  0  0  0 
    2.4950    0.0552   -0.2927 H   0  0  0  0  0  0  0  0  0  0  0  0 
   -1.2501    2.2227   -0.2029 H   0  0  0  0  0  0  0  0  0  0  0  0 
   -0.6974    1.4664    1.2785 H   0  0  0  0  0  0  0  0  0  0  0  0 
    1.2520   -2.0879    0.1687 H   0  0  0  0  0  0  0  0  0  0  0  0 
    0.7240   -1.3097   -1.3252 H   0  0  0  0  0  0  0  0  0  0  0  0 
   -1.5894    0.0262   -1.2843 H   0  0  0  0  0  0  0  0  0  0  0  0 
   -2.4749    0.0651    0.2401 H   0  0  0  0  0  0  0  0  0  0  0  0 
   -1.2406   -2.0862   -0.1744 H   0  0  0  0  0  0  0  0  0  0  0  0 
   -0.3543   -0.6249    2.1762 H   0  0  0  0  0  0  0  0  0  0  0  0 
   -2.1862   -2.3538    2.5425 H   0  0  0  0  0  0  0  0  0  0  0  0 
  1 10  1  0  0  0  0 
  1  2  1  0  0  0  0 
  1  3  1  0  0  0  0 
  2 11  1  0  0  0  0 
  3 14  1  0  0  0  0 
  4  2  1  0  0  0  0 
  4 15  1  0  0  0  0 
  4  6  1  0  0  0  0 
  5  3  1  0  0  0  0 
  5 18  1  0  0  0  0 
  5  6  1  0  0  0  0 
  6  7  1  0  0  0  0 
  7  8  1  0  0  0  0 
  7 20  1  0  0  0  0 
  8 21  1  0  0  0  0 
  9  1  1  0  0  0  0 
 12  2  1  0  0  0  0 
 13  3  1  0  0  0  0 
 16  4  1  0  0  0  0 
 17  5  1  0  0  0  0 
 19  6  1  0  0  0  0 
M  END 
>  <HBA> 
2 
 
>  <HBD> 
2 
 
>  <TPSA> 
32.26 
 
>  <cid> 
72935 
 
>  <dipole> 
0.65 
 
>  <excitation_energy_1> 
5.864 
 
>  <excitation_energy_2> 
6.235 
 
>  <excitation_energy_3> 
6.328 
 
>  <excitation_energy_4> 
6.664 
 
>  <homo_energy> 
-6.297 
 
>  <homo_lumo_gap> 
8.31 
 
>  <logP> 
1.689 
 
>  <lumo_energy> 
2.014 
 
>  <melting_point> 
77.1 
 
>  <molecular_refractivity> 
32.37 
 
>  <oscillator_strength_1> 
0.0082 
 
>  <oscillator_strength_2> 
0.0079 
 
>  <oscillator_strength_3> 
0.0034 
 
>  <oscillator_strength_4> 
0.0098 
 
>  <open_babel_can_smiles> 
ONC1CCCCC1 
 
>  <mulliken_charges> 
21 
1   -0.252971 
2   -0.271209 
3   -0.26993 
4   -0.27168 
5   -0.270008 
6   0.041636 
7   -0.363926 
8   -0.537504 
9   0.128029 
10   0.130569 
11   0.127814 
12   0.134967 
13   0.13492 
14   0.125777 
15   0.144944 
16   0.133225 
17   0.124773 
18   0.15977 
19   0.127971 
20   0.314607 
21   0.408228 
 
>  <lowdin_charges> 
21 
1   -0.27707 
2   -0.278627 
3   -0.280391 
4   -0.283065 
5   -0.293931 
6   -0.07827 
7   -0.244107 
8   -0.43415 
9   0.135447 
10   0.143494 
11   0.133413 
12   0.145226 
13   0.147312 
14   0.132737 
15   0.151796 
16   0.142967 
17   0.138687 
18   0.156586 
19   0.143426 
20   0.250624 
21   0.347896 
 
$$$$ 
 
