PCCDB-ID:  7102 
public computational chemistry database (PCCDB) project, http://pccdb.org 
 
 24 25  0  0  0  0  0  0  0  0999 V2000 
   -1.4280   -0.0975    0.4324 C   0  0  0  0  0  0  0  0  0  0  0  0 
   -0.8916    0.9463   -0.3238 C   0  0  0  0  0  0  0  0  0  0  0  0 
   -0.5745   -1.0685    0.9594 C   0  0  0  0  0  0  0  0  0  0  0  0 
    0.4817    1.0158   -0.5526 C   0  0  0  0  0  0  0  0  0  0  0  0 
    0.7994   -0.9947    0.7349 C   0  0  0  0  0  0  0  0  0  0  0  0 
    3.5900   -1.0323   -0.4668 C   0  0  0  0  0  0  0  0  0  0  0  0 
    3.4897    1.3579   -0.3115 C   0  0  0  0  0  0  0  0  0  0  0  0 
    4.9592   -0.9660   -0.6989 C   0  0  0  0  0  0  0  0  0  0  0  0 
    4.8585    1.4366   -0.5415 C   0  0  0  0  0  0  0  0  0  0  0  0 
    1.3560    0.0480   -0.0269 C   0  0  0  0  0  0  0  0  0  0  0  0 
    2.8173    0.1246   -0.2686 C   0  0  0  0  0  0  0  0  0  0  0  0 
    5.6205    0.2729   -0.7400 C   0  0  0  0  0  0  0  0  0  0  0  0 
    7.0056    0.3427   -0.9129 N   0  0  0  0  0  0  0  0  0  0  0  0 
   -2.4987   -0.1534    0.6093 H   0  0  0  0  0  0  0  0  0  0  0  0 
   -1.5457    1.7044   -0.7472 H   0  0  0  0  0  0  0  0  0  0  0  0 
   -0.9779   -1.8820    1.5573 H   0  0  0  0  0  0  0  0  0  0  0  0 
    0.8824    1.8166   -1.1682 H   0  0  0  0  0  0  0  0  0  0  0  0 
    1.4552   -1.7397    1.1770 H   0  0  0  0  0  0  0  0  0  0  0  0 
    3.1045   -2.0045   -0.4686 H   0  0  0  0  0  0  0  0  0  0  0  0 
    2.9337    2.2754   -0.1384 H   0  0  0  0  0  0  0  0  0  0  0  0 
    5.5260   -1.8816   -0.8547 H   0  0  0  0  0  0  0  0  0  0  0  0 
    5.3502    2.4071   -0.5521 H   0  0  0  0  0  0  0  0  0  0  0  0 
    7.4158   -0.4504   -1.3906 H   0  0  0  0  0  0  0  0  0  0  0  0 
    7.3442    1.2176   -1.2940 H   0  0  0  0  0  0  0  0  0  0  0  0 
  1 14  1  0  0  0  0 
  1  3  2  0  0  0  0 
  2  1  1  0  0  0  0 
  3 16  1  0  0  0  0 
  4  2  2  0  0  0  0 
  4 10  1  0  0  0  0 
  5  3  1  0  0  0  0 
  5 18  1  0  0  0  0 
  6 11  2  0  0  0  0 
  7 11  1  0  0  0  0 
  7 20  1  0  0  0  0 
  8  6  1  0  0  0  0 
  9  7  2  0  0  0  0 
 10  5  2  0  0  0  0 
 11 10  1  0  0  0  0 
 12  8  2  0  0  0  0 
 12  9  1  0  0  0  0 
 13 12  1  0  0  0  0 
 15  2  1  0  0  0  0 
 17  4  1  0  0  0  0 
 19  6  1  0  0  0  0 
 21  8  1  0  0  0  0 
 22  9  1  0  0  0  0 
 23 13  1  0  0  0  0 
 24 13  1  0  0  0  0 
M  END 
>  <HBA> 
1 
 
>  <HBD> 
1 
 
>  <TPSA> 
26.02 
 
>  <cid> 
7102 
 
>  <dipole> 
2.13 
 
>  <excitation_energy_1> 
4.393 
 
>  <excitation_energy_2> 
4.422 
 
>  <excitation_energy_3> 
4.593 
 
>  <excitation_energy_4> 
4.648 
 
>  <homo_energy> 
-5.214 
 
>  <homo_lumo_gap> 
4.868 
 
>  <logP> 
3.517 
 
>  <lumo_energy> 
-0.346 
 
>  <melting_point> 
90.75 
 
>  <molecular_refractivity> 
56.28 
 
>  <oscillator_strength_1> 
0.5012 
 
>  <oscillator_strength_2> 
0.014 
 
>  <oscillator_strength_3> 
0.0122 
 
>  <oscillator_strength_4> 
0.0124 
 
>  <open_babel_can_smiles> 
Nc1ccc(cc1)c1ccccc1 
 
>  <mulliken_charges> 
24 
1   -0.129318 
2   -0.133715 
3   -0.13365 
4   -0.176542 
5   -0.176653 
6   -0.18243 
7   -0.182896 
8   -0.177947 
9   -0.178047 
10   0.092101 
11   0.084764 
12   0.314781 
13   -0.788162 
14   0.125489 
15   0.126227 
16   0.126502 
17   0.127055 
18   0.128337 
19   0.12968 
20   0.129936 
21   0.11689 
22   0.117388 
23   0.320084 
24   0.320127 
 
>  <lowdin_charges> 
24 
1   -0.161313 
2   -0.157335 
3   -0.156209 
4   -0.166342 
5   -0.167009 
6   -0.149474 
7   -0.150215 
8   -0.200086 
9   -0.199384 
10   0.002077 
11   -0.028335 
12   0.062306 
13   -0.489258 
14   0.154252 
15   0.157238 
16   0.156967 
17   0.157659 
18   0.158665 
19   0.158406 
20   0.159116 
21   0.153091 
22   0.15274 
23   0.276554 
24   0.275888 
 
$$$$ 
 
