PCCDB-ID:  8498 
public computational chemistry database (PCCDB) project, http://pccdb.org 
 
 27 26  0  0  0  0  0  0  0  0999 V2000 
    0.9639   -0.0343   -0.0279 C   0  0  0  0  0  0  0  0  0  0  0  0 
    3.0412    1.3292   -0.1781 C   0  0  0  0  0  0  0  0  0  0  0  0 
    2.7421   -2.5029   -0.0835 C   0  0  0  0  0  0  0  0  0  0  0  0 
    4.6204   -1.0257    0.4187 C   0  0  0  0  0  0  0  0  0  0  0  0 
    2.5974   -3.3575    1.1842 C   0  0  0  0  0  0  0  0  0  0  0  0 
    5.5078   -1.2436   -0.8140 C   0  0  0  0  0  0  0  0  0  0  0  0 
    2.4431   -0.0568   -0.4524 C   0  0  0  0  0  0  0  0  0  0  0  0 
    3.1643   -1.1386    0.2720 N   0  0  0  0  0  0  0  0  0  0  0  0 
    1.7898   -2.6948    2.1363 O   0  0  0  0  0  0  0  0  0  0  0  0 
    5.2827   -0.2071   -1.7647 O   0  0  0  0  0  0  0  0  0  0  0  0 
    0.4153    0.6936   -0.6365 H   0  0  0  0  0  0  0  0  0  0  0  0 
    0.8766    0.2655    1.0234 H   0  0  0  0  0  0  0  0  0  0  0  0 
    0.4635   -0.9999   -0.1370 H   0  0  0  0  0  0  0  0  0  0  0  0 
    2.3961    2.0901   -0.6307 H   0  0  0  0  0  0  0  0  0  0  0  0 
    4.0384    1.4404   -0.6060 H   0  0  0  0  0  0  0  0  0  0  0  0 
    3.0829    1.5299    0.9002 H   0  0  0  0  0  0  0  0  0  0  0  0 
    1.7704   -2.4539   -0.5789 H   0  0  0  0  0  0  0  0  0  0  0  0 
    3.4272   -2.9916   -0.7946 H   0  0  0  0  0  0  0  0  0  0  0  0 
    4.8601   -0.0501    0.8485 H   0  0  0  0  0  0  0  0  0  0  0  0 
    4.9339   -1.7704    1.1625 H   0  0  0  0  0  0  0  0  0  0  0  0 
    3.5930   -3.5942    1.6005 H   0  0  0  0  0  0  0  0  0  0  0  0 
    2.1159   -4.3116    0.9407 H   0  0  0  0  0  0  0  0  0  0  0  0 
    5.3162   -2.2310   -1.2607 H   0  0  0  0  0  0  0  0  0  0  0  0 
    6.5558   -1.2432   -0.4695 H   0  0  0  0  0  0  0  0  0  0  0  0 
    2.4988   -0.2326   -1.5397 H   0  0  0  0  0  0  0  0  0  0  0  0 
    2.0864   -1.7655    2.0759 H   0  0  0  0  0  0  0  0  0  0  0  0 
    5.8265   -0.3911   -2.5452 H   0  0  0  0  0  0  0  0  0  0  0  0 
  1 12  1  0  0  0  0 
  2 16  1  0  0  0  0 
  3  8  1  0  0  0  0 
  3  5  1  0  0  0  0 
  4 19  1  0  0  0  0 
  4 20  1  0  0  0  0 
  5 21  1  0  0  0  0 
  5  9  1  0  0  0  0 
  6 24  1  0  0  0  0 
  6  4  1  0  0  0  0 
  7  2  1  0  0  0  0 
  7  1  1  0  0  0  0 
  7  8  1  0  0  0  0 
  8  4  1  0  0  0  0 
 10  6  1  0  0  0  0 
 11  1  1  0  0  0  0 
 13  1  1  0  0  0  0 
 14  2  1  0  0  0  0 
 15  2  1  0  0  0  0 
 17  3  1  0  0  0  0 
 18  3  1  0  0  0  0 
 22  5  1  0  0  0  0 
 23  6  1  0  0  0  0 
 25  7  1  0  0  0  0 
 26  9  1  0  0  0  0 
 27 10  1  0  0  0  0 
M  END 
>  <HBA> 
3 
 
>  <HBD> 
2 
 
>  <TPSA> 
43.7 
 
>  <cid> 
8498 
 
>  <dipole> 
3.68 
 
>  <excitation_energy_1> 
4.991 
 
>  <excitation_energy_2> 
5.499 
 
>  <excitation_energy_3> 
5.608 
 
>  <excitation_energy_4> 
5.799 
 
>  <homo_energy> 
-5.733 
 
>  <homo_lumo_gap> 
7.355 
 
>  <logP> 
-0.319 
 
>  <lumo_energy> 
1.622 
 
>  <melting_point> 
12.65 
 
>  <molecular_refractivity> 
40.98 
 
>  <oscillator_strength_1> 
0.013 
 
>  <oscillator_strength_2> 
0.0084 
 
>  <oscillator_strength_3> 
0.0193 
 
>  <oscillator_strength_4> 
0.0133 
 
>  <open_babel_can_smiles> 
OCCN(C(C)C)CCO 
 
>  <mulliken_charges> 
27 
1   -0.451911 
2   -0.480067 
3   -0.159001 
4   -0.152603 
5   -0.015754 
6   -0.039439 
7   0.084101 
8   -0.427066 
9   -0.629802 
10   -0.608199 
11   0.139216 
12   0.143369 
13   0.154686 
14   0.141045 
15   0.181085 
16   0.138489 
17   0.151983 
18   0.120301 
19   0.161365 
20   0.143153 
21   0.110058 
22   0.134965 
23   0.125234 
24   0.120365 
25   0.122501 
26   0.396114 
27   0.395811 
 
>  <lowdin_charges> 
27 
1   -0.454081 
2   -0.456885 
3   -0.22539 
4   -0.215308 
5   -0.14047 
6   -0.148991 
7   -0.047396 
8   -0.193567 
9   -0.475871 
10   -0.468851 
11   0.150834 
12   0.147385 
13   0.152074 
14   0.154401 
15   0.164618 
16   0.143517 
17   0.153715 
18   0.131138 
19   0.158856 
20   0.150459 
21   0.116534 
22   0.143118 
23   0.126808 
24   0.128365 
25   0.124751 
26   0.332296 
27   0.347943 
 
$$$$ 
 
