PCCDB-ID:  48734 
public computational chemistry database (PCCDB) project, http://pccdb.org 
 
 37 37  0  0  1  0  0  0  0  0999 V2000 
    2.4962   -2.2061    1.6493 C   0  0  0  0  0  0  0  0  0  0  0  0 
    0.9149    1.0246    2.3931 C   0  0  0  0  0  0  0  0  0  0  0  0 
    6.7394    2.0040    1.6208 C   0  0  0  0  0  0  0  0  0  0  0  0 
    6.3579   -1.1954   -1.7943 C   0  0  0  0  0  0  0  0  0  0  0  0 
    2.5560   -0.9962    0.7045 C   0  0  0  0  0  0  0  0  0  0  0  0 
    2.4170    0.7596    2.5760 C   0  0  0  0  0  0  0  0  0  0  0  0 
    5.2181    1.8224    1.6858 C   0  0  0  0  0  0  0  0  0  0  0  0 
    3.1234    0.3350    1.2680 C   0  0  0  0  0  0  0  0  0  0  0  0 
    5.3383   -0.6274    2.2394 C   0  0  0  0  0  0  0  0  0  0  0  0 
    5.1742    0.1528   -0.1435 C   0  0  0  0  0  0  0  0  0  0  0  0 
    6.4314   -1.8492    0.5944 C   0  0  0  0  0  0  0  0  0  0  0  0 
    4.7137    0.3900    1.3056 C   0  0  2  0  0  0  0  0  0  0  0  0 
    6.0970   -1.6089    1.9259 N   0  0  0  0  0  0  0  0  0  0  0  0 
    5.9512   -0.9555   -0.4041 N   0  0  0  0  0  0  0  0  0  0  0  0 
    5.1062   -0.4776    3.5580 O   0  0  0  0  0  0  0  0  0  0  0  0 
    4.8413    0.9294   -1.0275 O   0  0  0  0  0  0  0  0  0  0  0  0 
    7.1255   -2.7916    0.2734 O   0  0  0  0  0  0  0  0  0  0  0  0 
    2.0671   -3.0638    1.1198 H   0  0  0  0  0  0  0  0  0  0  0  0 
    1.8609   -2.0155    2.5215 H   0  0  0  0  0  0  0  0  0  0  0  0 
    3.4811   -2.5111    2.0142 H   0  0  0  0  0  0  0  0  0  0  0  0 
    0.4797    1.4175    3.3182 H   0  0  0  0  0  0  0  0  0  0  0  0 
    0.3662    0.1145    2.1314 H   0  0  0  0  0  0  0  0  0  0  0  0 
    0.7405    1.7620    1.6008 H   0  0  0  0  0  0  0  0  0  0  0  0 
    7.0053    3.0246    1.9148 H   0  0  0  0  0  0  0  0  0  0  0  0 
    7.1185    1.8461    0.6059 H   0  0  0  0  0  0  0  0  0  0  0  0 
    7.2648    1.3172    2.2938 H   0  0  0  0  0  0  0  0  0  0  0  0 
    5.5477   -0.8854   -2.4537 H   0  0  0  0  0  0  0  0  0  0  0  0 
    6.5779   -2.2551   -1.9037 H   0  0  0  0  0  0  0  0  0  0  0  0 
    7.2531   -0.6141   -2.0381 H   0  0  0  0  0  0  0  0  0  0  0  0 
    1.5404   -0.7864    0.3479 H   0  0  0  0  0  0  0  0  0  0  0  0 
    3.1176   -1.2706   -0.1959 H   0  0  0  0  0  0  0  0  0  0  0  0 
    2.5405   -0.0087    3.3503 H   0  0  0  0  0  0  0  0  0  0  0  0 
    2.8669    1.6830    2.9616 H   0  0  0  0  0  0  0  0  0  0  0  0 
    4.7318    2.5164    0.9938 H   0  0  0  0  0  0  0  0  0  0  0  0 
    4.8750    2.0877    2.6918 H   0  0  0  0  0  0  0  0  0  0  0  0 
    2.8903    1.1022    0.5193 H   0  0  0  0  0  0  0  0  0  0  0  0 
    4.5206    0.2811    3.7078 H   0  0  0  0  0  0  0  0  0  0  0  0 
  1 20  1  0  0  0  0 
  1 19  1  0  0  0  0 
  2  6  1  0  0  0  0 
  2 21  1  0  0  0  0 
  3  7  1  0  0  0  0 
  3 24  1  0  0  0  0 
  3 26  1  0  0  0  0 
  4 14  1  0  0  0  0 
  5  8  1  0  0  0  0 
  5  1  1  0  0  0  0 
  6 33  1  0  0  0  0 
  6 32  1  0  0  0  0 
  7 35  1  0  0  0  0 
  8  6  1  0  0  0  0 
  9 15  1  0  0  0  0 
 10 12  1  0  0  0  0 
 11 13  1  0  0  0  0 
 12  8  1  1  0  0  0 
 12  7  1  0  0  0  0 
 12  9  1  0  0  0  0 
 13  9  2  0  0  0  0 
 14 10  1  0  0  0  0 
 14 11  1  0  0  0  0 
 15 37  1  0  0  0  0 
 16 10  2  0  0  0  0 
 17 11  2  0  0  0  0 
 18  1  1  0  0  0  0 
 22  2  1  0  0  0  0 
 23  2  1  0  0  0  0 
 25  3  1  0  0  0  0 
 27  4  1  0  0  0  0 
 28  4  1  0  0  0  0 
 29  4  1  0  0  0  0 
 30  5  1  0  0  0  0 
 31  5  1  0  0  0  0 
 34  7  1  0  0  0  0 
 36  8  1  0  0  0  0 
M  END 
>  <HBA> 
5 
 
>  <HBD> 
1 
 
>  <TPSA> 
66.48 
 
>  <cid> 
48734 
 
>  <dipole> 
5.3 
 
>  <excitation_energy_1> 
4.501 
 
>  <excitation_energy_2> 
4.796 
 
>  <excitation_energy_3> 
5.092 
 
>  <excitation_energy_4> 
5.279 
 
>  <homo_energy> 
-7.17 
 
>  <homo_lumo_gap> 
5.763 
 
>  <logP> 
1.794 
 
>  <lumo_energy> 
-1.407 
 
>  <melting_point> 
115.04 
 
>  <molecular_refractivity> 
71.94 
 
>  <oscillator_strength_1> 
0.0005 
 
>  <oscillator_strength_2> 
0.0007 
 
>  <oscillator_strength_3> 
0.0078 
 
>  <oscillator_strength_4> 
0.0379 
 
>  <open_babel_can_smiles> 
CCC([C@@]1(CC)C(=NC(=O)N(C1=O)C)O)CC 
 
>  <mulliken_charges> 
37 
1   -0.469419 
2   -0.452616 
3   -0.474342 
4   -0.321316 
5   -0.290808 
6   -0.321249 
7   -0.278271 
8   -0.069303 
9   0.552301 
10   0.638981 
11   0.701739 
12   -0.139614 
13   -0.498035 
14   -0.51511 
15   -0.576137 
16   -0.521473 
17   -0.466408 
18   0.153907 
19   0.147064 
20   0.175742 
21   0.152443 
22   0.160581 
23   0.15404 
24   0.159406 
25   0.1709 
26   0.168197 
27   0.184572 
28   0.198699 
29   0.173858 
30   0.14966 
31   0.154288 
32   0.149326 
33   0.139393 
34   0.182487 
35   0.130238 
36   0.166517 
37   0.429763 
 
>  <lowdin_charges> 
37 
1   -0.458909 
2   -0.444125 
3   -0.45344 
4   -0.35059 
5   -0.283093 
6   -0.29833 
7   -0.270038 
8   -0.122236 
9   0.164116 
10   0.166801 
11   0.182255 
12   -0.059487 
13   -0.189015 
14   -0.091112 
15   -0.322182 
16   -0.285985 
17   -0.24644 
18   0.158837 
19   0.148382 
20   0.161586 
21   0.156517 
22   0.155277 
23   0.154041 
24   0.160406 
25   0.160341 
26   0.160026 
27   0.173904 
28   0.180294 
29   0.163065 
30   0.150995 
31   0.153229 
32   0.145791 
33   0.143696 
34   0.17067 
35   0.138412 
36   0.164679 
37   0.361662 
 
$$$$ 
 
