PCCDB-ID:  15512 
public computational chemistry database (PCCDB) project, http://pccdb.org 
 
 20 20  0  0  1  0  0  0  0  0999 V2000 
   -1.2419   -0.3649    0.2866 C   0  0  0  0  0  0  0  0  0  0  0  0 
   -0.3515   -1.3317    0.0417 C   0  0  0  0  0  0  0  0  0  0  0  0 
   -0.9149    1.1048    0.2015 C   0  0  0  0  0  0  0  0  0  0  0  0 
    1.0873   -1.0695   -0.3382 C   0  0  0  0  0  0  0  0  0  0  0  0 
    0.4225    1.3641   -0.5117 C   0  0  0  0  0  0  0  0  0  0  0  0 
    1.9003    0.5715    1.4171 C   0  0  0  0  0  0  0  0  0  0  0  0 
    1.5231    0.3846   -0.0622 C   0  0  1  0  0  0  0  0  0  0  0  0 
    2.2616    1.9098    1.7447 O   0  0  0  0  0  0  0  0  0  0  0  0 
   -2.2597   -0.6323    0.5692 H   0  0  0  0  0  0  0  0  0  0  0  0 
   -0.6573   -2.3750    0.1119 H   0  0  0  0  0  0  0  0  0  0  0  0 
   -0.8962    1.5373    1.2138 H   0  0  0  0  0  0  0  0  0  0  0  0 
   -1.7224    1.6346   -0.3226 H   0  0  0  0  0  0  0  0  0  0  0  0 
    1.2307   -1.3029   -1.4045 H   0  0  0  0  0  0  0  0  0  0  0  0 
    1.7443   -1.7694    0.1996 H   0  0  0  0  0  0  0  0  0  0  0  0 
    0.7475    2.3943   -0.3335 H   0  0  0  0  0  0  0  0  0  0  0  0 
    0.2797    1.2513   -1.5948 H   0  0  0  0  0  0  0  0  0  0  0  0 
    2.7114   -0.1291    1.6770 H   0  0  0  0  0  0  0  0  0  0  0  0 
    1.0510    0.3318    2.0638 H   0  0  0  0  0  0  0  0  0  0  0  0 
    2.4294    0.5902   -0.6541 H   0  0  0  0  0  0  0  0  0  0  0  0 
    3.0457    2.1356    1.2197 H   0  0  0  0  0  0  0  0  0  0  0  0 
  1  9  1  0  0  0  0 
  2 10  1  0  0  0  0 
  2  1  2  0  0  0  0 
  3  1  1  0  0  0  0 
  3 11  1  0  0  0  0 
  4  7  1  0  0  0  0 
  4  2  1  0  0  0  0 
  4 14  1  0  0  0  0 
  5 15  1  0  0  0  0 
  5  7  1  0  0  0  0 
  5  3  1  0  0  0  0 
  6 17  1  0  0  0  0 
  6  8  1  0  0  0  0 
  6 18  1  0  0  0  0 
  7 19  1  6  0  0  0 
  7  6  1  0  0  0  0 
 12  3  1  0  0  0  0 
 13  4  1  0  0  0  0 
 16  5  1  0  0  0  0 
 20  8  1  0  0  0  0 
M  END 
>  <HBA> 
1 
 
>  <HBD> 
1 
 
>  <TPSA> 
20.23 
 
>  <cid> 
15512 
 
>  <dipole> 
1.57 
 
>  <excitation_energy_1> 
5.799 
 
>  <excitation_energy_2> 
6.184 
 
>  <excitation_energy_3> 
6.323 
 
>  <excitation_energy_4> 
6.447 
 
>  <homo_energy> 
-6.416 
 
>  <homo_lumo_gap> 
7.29 
 
>  <logP> 
1.335 
 
>  <lumo_energy> 
0.873 
 
>  <melting_point> 
23.76 
 
>  <molecular_refractivity> 
34.34 
 
>  <oscillator_strength_1> 
0.004 
 
>  <oscillator_strength_2> 
0.0075 
 
>  <oscillator_strength_3> 
0.0025 
 
>  <oscillator_strength_4> 
0.0058 
 
>  <open_babel_can_smiles> 
OC[C@@H]1CCC=CC1 
 
>  <mulliken_charges> 
20 
1   -0.10073 
2   -0.111306 
3   -0.31078 
4   -0.306007 
5   -0.255855 
6   -0.030483 
7   -0.123429 
8   -0.615658 
9   0.118964 
10   0.118897 
11   0.157299 
12   0.140429 
13   0.14657 
14   0.136098 
15   0.140533 
16   0.131428 
17   0.11669 
18   0.155509 
19   0.106369 
20   0.385462 
 
>  <lowdin_charges> 
20 
1   -0.174111 
2   -0.178631 
3   -0.279617 
4   -0.278066 
5   -0.274954 
6   -0.142232 
7   -0.146326 
8   -0.467393 
9   0.149466 
10   0.149151 
11   0.152842 
12   0.152099 
13   0.150355 
14   0.147953 
15   0.148588 
16   0.140184 
17   0.1266 
18   0.152104 
19   0.131845 
20   0.340143 
 
$$$$ 
 
