PCCDB-ID:  7865 
public computational chemistry database (PCCDB) project, http://pccdb.org 
 
  8  7  0  0  0  0  0  0  0  0999 V2000 
    0.9157   -0.0131    0.1298 C   0  0  0  0  0  0  0  0  0  0  0  0 
    3.0302   -0.4267    1.0699 C   0  0  0  0  0  0  0  0  0  0  0  0 
    2.5800   -0.4611    2.1887 O   0  0  0  0  0  0  0  0  0  0  0  0 
    2.3301   -0.2146   -0.0554 O   0  0  0  0  0  0  0  0  0  0  0  0 
    0.5100    0.1450   -0.8694 H   0  0  0  0  0  0  0  0  0  0  0  0 
    0.7341    0.8598    0.7622 H   0  0  0  0  0  0  0  0  0  0  0  0 
    0.4626   -0.8923    0.5950 H   0  0  0  0  0  0  0  0  0  0  0  0 
    4.0907   -0.5659    0.8099 H   0  0  0  0  0  0  0  0  0  0  0  0 
  1  7  1  0  0  0  0 
  1  6  1  0  0  0  0 
  2  3  2  0  0  0  0 
  4  1  1  0  0  0  0 
  4  2  1  0  0  0  0 
  5  1  1  0  0  0  0 
  8  2  1  0  0  0  0 
M  END 
>  <HBA> 
2 
 
>  <HBD> 
0 
 
>  <TPSA> 
26.3 
 
>  <cid> 
7865 
 
>  <dipole> 
1.84 
 
>  <excitation_energy_1> 
5.812 
 
>  <excitation_energy_2> 
7.485 
 
>  <excitation_energy_3> 
7.831 
 
>  <excitation_energy_4> 
7.989 
 
>  <homo_energy> 
-7.72 
 
>  <homo_lumo_gap> 
7.867 
 
>  <logP> 
0.425 
 
>  <lumo_energy> 
0.147 
 
>  <melting_point> 
-39.14 
 
>  <molecular_refractivity> 
13.4 
 
>  <oscillator_strength_1> 
0.0017 
 
>  <oscillator_strength_2> 
0.0022 
 
>  <oscillator_strength_3> 
0.0424 
 
>  <oscillator_strength_4> 
0.0707 
 
>  <open_babel_can_smiles> 
COC=O 
 
>  <mulliken_charges> 
8 
1   -0.225893 
2   0.387082 
3   -0.418229 
4   -0.401928 
5   0.16954 
6   0.175125 
7   0.175032 
8   0.13927 
 
>  <lowdin_charges> 
8 
1   -0.280037 
2   0.087182 
3   -0.249312 
4   -0.184679 
5   0.163189 
6   0.162379 
7   0.162727 
8   0.13855 
 
$$$$ 
 
