PCCDB-ID:  12713 
public computational chemistry database (PCCDB) project, http://pccdb.org 
 
 36 35  0  0  1  0  0  0  0  0999 V2000 
    0.4191    0.5817   -0.2044 C   0  0  0  0  0  0  0  0  0  0  0  0 
    3.8744   -0.4580   -4.9820 C   0  0  0  0  0  0  0  0  0  0  0  0 
    7.2731   -5.0562   -4.6521 C   0  0  0  0  0  0  0  0  0  0  0  0 
    8.3787   -3.7067   -6.4599 C   0  0  0  0  0  0  0  0  0  0  0  0 
    1.9210    0.5814   -0.5064 C   0  0  0  0  0  0  0  0  0  0  0  0 
    3.6697   -1.6982   -4.1011 C   0  0  0  0  0  0  0  0  0  0  0  0 
    2.3373   -0.5070   -1.5050 C   0  0  0  0  0  0  0  0  0  0  0  0 
    3.8430   -0.5036   -1.8023 C   0  0  0  0  0  0  0  0  0  0  0  0 
    5.8613   -1.6074   -2.7777 C   0  0  0  0  0  0  0  0  0  0  0  0 
    7.5692   -3.8711   -5.2005 C   0  0  0  0  0  0  0  0  0  0  0  0 
    4.3304   -1.6575   -2.7047 C   0  0  2  0  0  0  0  0  0  0  0  0 
    7.1051   -2.5896   -4.5830 C   0  0  0  0  0  0  0  0  0  0  0  0 
    7.3653   -1.4991   -5.0576 O   0  0  0  0  0  0  0  0  0  0  0  0 
    6.3758   -2.7748   -3.4581 O   0  0  0  0  0  0  0  0  0  0  0  0 
    0.1552    1.3691    0.5107 H   0  0  0  0  0  0  0  0  0  0  0  0 
    0.1004   -0.3770    0.2231 H   0  0  0  0  0  0  0  0  0  0  0  0 
   -0.1690    0.7486   -1.1153 H   0  0  0  0  0  0  0  0  0  0  0  0 
    3.3592   -0.5868   -5.9407 H   0  0  0  0  0  0  0  0  0  0  0  0 
    4.9334   -0.2855   -5.2010 H   0  0  0  0  0  0  0  0  0  0  0  0 
    3.4713    0.4487   -4.5160 H   0  0  0  0  0  0  0  0  0  0  0  0 
    7.6139   -5.9832   -5.1059 H   0  0  0  0  0  0  0  0  0  0  0  0 
    6.6875   -5.1321   -3.7432 H   0  0  0  0  0  0  0  0  0  0  0  0 
    8.6784   -4.6790   -6.8611 H   0  0  0  0  0  0  0  0  0  0  0  0 
    9.2779   -3.1094   -6.2717 H   0  0  0  0  0  0  0  0  0  0  0  0 
    7.8071   -3.1694   -7.2249 H   0  0  0  0  0  0  0  0  0  0  0  0 
    2.4829    0.4488    0.4292 H   0  0  0  0  0  0  0  0  0  0  0  0 
    2.2157    1.5649   -0.8996 H   0  0  0  0  0  0  0  0  0  0  0  0 
    4.0516   -2.5804   -4.6299 H   0  0  0  0  0  0  0  0  0  0  0  0 
    2.5950   -1.8757   -3.9697 H   0  0  0  0  0  0  0  0  0  0  0  0 
    1.7688   -0.3729   -2.4353 H   0  0  0  0  0  0  0  0  0  0  0  0 
    2.0462   -1.4918   -1.1095 H   0  0  0  0  0  0  0  0  0  0  0  0 
    4.3855   -0.5586   -0.8468 H   0  0  0  0  0  0  0  0  0  0  0  0 
    4.1223    0.4617   -2.2478 H   0  0  0  0  0  0  0  0  0  0  0  0 
    6.2899   -1.6341   -1.7700 H   0  0  0  0  0  0  0  0  0  0  0  0 
    6.2232   -0.7141   -3.2900 H   0  0  0  0  0  0  0  0  0  0  0  0 
    4.0692   -2.6013   -2.2021 H   0  0  0  0  0  0  0  0  0  0  0  0 
  1 16  1  0  0  0  0 
  1 15  1  0  0  0  0 
  2 20  1  0  0  0  0 
  2  6  1  0  0  0  0 
  3 22  1  0  0  0  0 
  4 24  1  0  0  0  0 
  4 10  1  0  0  0  0 
  5  1  1  0  0  0  0 
  5 26  1  0  0  0  0 
  6 29  1  0  0  0  0 
  6 11  1  0  0  0  0 
  7 31  1  0  0  0  0 
  7  5  1  0  0  0  0 
  8  7  1  0  0  0  0 
  8 32  1  0  0  0  0 
  9 11  1  0  0  0  0 
  9 34  1  0  0  0  0 
 10  3  2  0  0  0  0 
 10 12  1  0  0  0  0 
 11 36  1  1  0  0  0 
 11  8  1  0  0  0  0 
 12 14  1  0  0  0  0 
 13 12  2  0  0  0  0 
 14  9  1  0  0  0  0 
 17  1  1  0  0  0  0 
 18  2  1  0  0  0  0 
 19  2  1  0  0  0  0 
 21  3  1  0  0  0  0 
 23  4  1  0  0  0  0 
 25  4  1  0  0  0  0 
 27  5  1  0  0  0  0 
 28  6  1  0  0  0  0 
 30  7  1  0  0  0  0 
 33  8  1  0  0  0  0 
 35  9  1  0  0  0  0 
M  END 
>  <HBA> 
2 
 
>  <HBD> 
0 
 
>  <TPSA> 
26.3 
 
>  <cid> 
12713 
 
>  <dipole> 
1.78 
 
>  <excitation_energy_1> 
4.831 
 
>  <excitation_energy_2> 
5.731 
 
>  <excitation_energy_3> 
6.247 
 
>  <excitation_energy_4> 
6.579 
 
>  <homo_energy> 
-7.252 
 
>  <homo_lumo_gap> 
6.223 
 
>  <logP> 
3.322 
 
>  <lumo_energy> 
-1.029 
 
>  <melting_point> 
-35.28 
 
>  <molecular_refractivity> 
60.61 
 
>  <oscillator_strength_1> 
0.0002 
 
>  <oscillator_strength_2> 
0.1701 
 
>  <oscillator_strength_3> 
0.1735 
 
>  <oscillator_strength_4> 
0.0015 
 
>  <open_babel_can_smiles> 
CCCC[C@H](COC(=O)C(=C)C)CC 
 
>  <mulliken_charges> 
36 
1   -0.442023 
2   -0.467272 
3   -0.368948 
4   -0.499821 
5   -0.248442 
6   -0.267518 
7   -0.253185 
8   -0.268954 
9   -0.060669 
10   0.125816 
11   -0.091219 
12   0.600043 
13   -0.485988 
14   -0.485856 
15   0.142894 
16   0.141622 
17   0.142154 
18   0.142412 
19   0.172885 
20   0.140792 
21   0.147665 
22   0.171231 
23   0.146383 
24   0.172843 
25   0.172439 
26   0.13054 
27   0.131969 
28   0.141091 
29   0.136072 
30   0.137085 
31   0.127807 
32   0.12691 
33   0.136578 
34   0.145184 
35   0.181038 
36   0.126442 
 
>  <lowdin_charges> 
36 
1   -0.445633 
2   -0.455457 
3   -0.302448 
4   -0.436406 
5   -0.271343 
6   -0.279377 
7   -0.275165 
8   -0.27762 
9   -0.138235 
10   -0.027597 
11   -0.135172 
12   0.195788 
13   -0.27186 
14   -0.191615 
15   0.150754 
16   0.146397 
17   0.146933 
18   0.151423 
19   0.158463 
20   0.145139 
21   0.162963 
22   0.174736 
23   0.154861 
24   0.168922 
25   0.169614 
26   0.138726 
27   0.139298 
28   0.147276 
29   0.141973 
30   0.14162 
31   0.137713 
32   0.139959 
33   0.141749 
34   0.148072 
35   0.164468 
36   0.14108 
 
$$$$ 
 
