PCCDB-ID:  44159 
public computational chemistry database (PCCDB) project, http://pccdb.org 
 
 24 24  0  0  0  0  0  0  0  0999 V2000 
    1.4350   -2.0924    0.3650 C   0  0  0  0  0  0  0  0  0  0  0  0 
    1.9721    1.0426    2.8484 C   0  0  0  0  0  0  0  0  0  0  0  0 
    5.2467   -2.2530    0.3039 C   0  0  0  0  0  0  0  0  0  0  0  0 
    5.6040   -0.9062    0.3090 C   0  0  0  0  0  0  0  0  0  0  0  0 
    3.8979   -2.6095    0.3157 C   0  0  0  0  0  0  0  0  0  0  0  0 
    4.6031    0.0647    0.3282 C   0  0  0  0  0  0  0  0  0  0  0  0 
    2.2100    0.8222    0.3293 C   0  0  0  0  0  0  0  0  0  0  0  0 
    2.8796   -1.6480    0.3340 C   0  0  0  0  0  0  0  0  0  0  0  0 
    3.2470   -0.2837    0.3386 C   0  0  0  0  0  0  0  0  0  0  0  0 
    0.0365    0.8356    1.5014 N   0  0  0  0  0  0  0  0  0  0  0  0 
    1.3787    0.8628    1.5367 N   0  0  0  0  0  0  0  0  0  0  0  0 
   -0.4731    0.7340    0.3890 O   0  0  0  0  0  0  0  0  0  0  0  0 
    1.3455   -3.1358    0.0473 H   0  0  0  0  0  0  0  0  0  0  0  0 
    0.7932   -1.4834   -0.2793 H   0  0  0  0  0  0  0  0  0  0  0  0 
    1.0141   -2.0204    1.3764 H   0  0  0  0  0  0  0  0  0  0  0  0 
    2.5221    1.9911    2.8986 H   0  0  0  0  0  0  0  0  0  0  0  0 
    2.6632    0.2249    3.0769 H   0  0  0  0  0  0  0  0  0  0  0  0 
    1.1596    1.0557    3.5772 H   0  0  0  0  0  0  0  0  0  0  0  0 
    6.0112   -3.0251    0.2846 H   0  0  0  0  0  0  0  0  0  0  0  0 
    6.6495   -0.6108    0.2947 H   0  0  0  0  0  0  0  0  0  0  0  0 
    3.6226   -3.6617    0.3057 H   0  0  0  0  0  0  0  0  0  0  0  0 
    4.8770    1.1178    0.3275 H   0  0  0  0  0  0  0  0  0  0  0  0 
    1.5017    0.7206   -0.4977 H   0  0  0  0  0  0  0  0  0  0  0  0 
    2.7096    1.7941    0.2247 H   0  0  0  0  0  0  0  0  0  0  0  0 
  1 15  1  0  0  0  0 
  2 16  1  0  0  0  0 
  2 17  1  0  0  0  0 
  2 18  1  0  0  0  0 
  3  4  2  0  0  0  0 
  3  5  1  0  0  0  0 
  4  6  1  0  0  0  0 
  5  8  2  0  0  0  0 
  6  9  2  0  0  0  0 
  7  9  1  0  0  0  0 
  7 11  1  0  0  0  0 
  8  9  1  0  0  0  0 
  8  1  1  0  0  0  0 
 10 11  1  0  0  0  0 
 11  2  1  0  0  0  0 
 12 10  2  0  0  0  0 
 13  1  1  0  0  0  0 
 14  1  1  0  0  0  0 
 19  3  1  0  0  0  0 
 20  4  1  0  0  0  0 
 21  5  1  0  0  0  0 
 22  6  1  0  0  0  0 
 23  7  1  0  0  0  0 
 24  7  1  0  0  0  0 
M  END 
>  <HBA> 
3 
 
>  <HBD> 
0 
 
>  <TPSA> 
32.67 
 
>  <cid> 
44159 
 
>  <dipole> 
3.63 
 
>  <excitation_energy_1> 
3.368 
 
>  <excitation_energy_2> 
4.916 
 
>  <excitation_energy_3> 
5.118 
 
>  <excitation_energy_4> 
5.159 
 
>  <homo_energy> 
-6.03 
 
>  <homo_lumo_gap> 
5.116 
 
>  <logP> 
2.108 
 
>  <lumo_energy> 
-0.914 
 
>  <melting_point> 
33.01 
 
>  <molecular_refractivity> 
48.81 
 
>  <oscillator_strength_1> 
0.001 
 
>  <oscillator_strength_2> 
0.009 
 
>  <oscillator_strength_3> 
0.0012 
 
>  <oscillator_strength_4> 
0.0477 
 
>  <open_babel_can_smiles> 
O=NN(Cc1ccccc1C)C 
 
>  <mulliken_charges> 
24 
1   -0.540527 
2   -0.30999 
3   -0.124174 
4   -0.128905 
5   -0.183037 
6   -0.191875 
7   -0.260162 
8   0.129432 
9   0.119496 
10   0.151896 
11   -0.203531 
12   -0.377054 
13   0.155294 
14   0.181612 
15   0.169208 
16   0.161582 
17   0.178214 
18   0.189326 
19   0.131722 
20   0.130775 
21   0.126558 
22   0.124428 
23   0.207952 
24   0.16176 
 
>  <lowdin_charges> 
24 
1   -0.448473 
2   -0.357396 
3   -0.154948 
4   -0.159739 
5   -0.16245 
6   -0.164562 
7   -0.218063 
8   0.001588 
9   -0.029341 
10   0.054987 
11   -0.041779 
12   -0.273174 
13   0.157125 
14   0.170406 
15   0.163592 
16   0.154586 
17   0.164733 
18   0.176718 
19   0.159993 
20   0.157482 
21   0.154998 
22   0.152641 
23   0.184041 
24   0.157037 
 
$$$$ 
 
