PCCDB-ID:  22990 
public computational chemistry database (PCCDB) project, http://pccdb.org 
 
 33 33  0  0  0  0  0  0  0  0999 V2000 
    2.6280    0.2064   -1.5337 C   0  0  0  0  0  0  0  0  0  0  0  0 
   10.9310    0.9732    1.0594 C   0  0  0  0  0  0  0  0  0  0  0  0 
    2.5902    2.6142    1.5783 C   0  0  0  0  0  0  0  0  0  0  0  0 
    2.1763    0.1567    1.5561 C   0  0  0  0  0  0  0  0  0  0  0  0 
    2.3904    1.4186   -0.6261 C   0  0  0  0  0  0  0  0  0  0  0  0 
    5.0681   -0.0076    1.4419 C   0  0  0  0  0  0  0  0  0  0  0  0 
    5.2857    2.0424    0.2266 C   0  0  0  0  0  0  0  0  0  0  0  0 
    6.4567   -0.1519    1.4482 C   0  0  0  0  0  0  0  0  0  0  0  0 
    6.6725    1.9150    0.2166 C   0  0  0  0  0  0  0  0  0  0  0  0 
    9.5330    1.5408    1.1159 C   0  0  0  0  0  0  0  0  0  0  0  0 
    4.4465    1.0929    0.8364 C   0  0  0  0  0  0  0  0  0  0  0  0 
    7.2532    0.8107    0.8397 C   0  0  0  0  0  0  0  0  0  0  0  0 
    2.9206    1.2970    0.8340 C   0  0  0  0  0  0  0  0  0  0  0  0 
    9.2430    2.6780    1.3937 O   0  0  0  0  0  0  0  0  0  0  0  0 
    8.6276    0.5562    0.8195 O   0  0  0  0  0  0  0  0  0  0  0  0 
    2.2632    0.4114   -2.5467 H   0  0  0  0  0  0  0  0  0  0  0  0 
    2.1044   -0.6859   -1.1734 H   0  0  0  0  0  0  0  0  0  0  0  0 
    3.6936   -0.0366   -1.6052 H   0  0  0  0  0  0  0  0  0  0  0  0 
   11.6545    1.7848    1.1420 H   0  0  0  0  0  0  0  0  0  0  0  0 
   11.0840    0.4190    0.1287 H   0  0  0  0  0  0  0  0  0  0  0  0 
   11.0765    0.2702    1.8872 H   0  0  0  0  0  0  0  0  0  0  0  0 
    1.5062    2.7807    1.5984 H   0  0  0  0  0  0  0  0  0  0  0  0 
    3.0519    3.4819    1.0954 H   0  0  0  0  0  0  0  0  0  0  0  0 
    2.9485    2.5791    2.6132 H   0  0  0  0  0  0  0  0  0  0  0  0 
    1.0960    0.3367    1.5118 H   0  0  0  0  0  0  0  0  0  0  0  0 
    2.4570    0.1020    2.6141 H   0  0  0  0  0  0  0  0  0  0  0  0 
    2.3667   -0.8227    1.1063 H   0  0  0  0  0  0  0  0  0  0  0  0 
    1.3124    1.6266   -0.5730 H   0  0  0  0  0  0  0  0  0  0  0  0 
    2.8426    2.3034   -1.0920 H   0  0  0  0  0  0  0  0  0  0  0  0 
    4.4738   -0.7753    1.9244 H   0  0  0  0  0  0  0  0  0  0  0  0 
    4.8533    2.9126   -0.2589 H   0  0  0  0  0  0  0  0  0  0  0  0 
    6.9268   -1.0094    1.9197 H   0  0  0  0  0  0  0  0  0  0  0  0 
    7.2910    2.6674   -0.2562 H   0  0  0  0  0  0  0  0  0  0  0  0 
  1 17  1  0  0  0  0 
  1  5  1  0  0  0  0 
  2 10  1  0  0  0  0 
  2 19  1  0  0  0  0 
  2 21  1  0  0  0  0 
  3 22  1  0  0  0  0 
  3 24  1  0  0  0  0 
  4 26  1  0  0  0  0 
  5 28  1  0  0  0  0 
  5 13  1  0  0  0  0 
  6  8  1  0  0  0  0 
  6 30  1  0  0  0  0 
  7 11  1  0  0  0  0 
  8 32  1  0  0  0  0 
  9  7  2  0  0  0  0 
  9 12  1  0  0  0  0 
 10 14  2  0  0  0  0 
 11  6  2  0  0  0  0 
 12  8  2  0  0  0  0 
 13 11  1  0  0  0  0 
 13  4  1  0  0  0  0 
 13  3  1  0  0  0  0 
 15 12  1  0  0  0  0 
 15 10  1  0  0  0  0 
 16  1  1  0  0  0  0 
 18  1  1  0  0  0  0 
 20  2  1  0  0  0  0 
 23  3  1  0  0  0  0 
 25  4  1  0  0  0  0 
 27  4  1  0  0  0  0 
 29  5  1  0  0  0  0 
 31  7  1  0  0  0  0 
 33  9  1  0  0  0  0 
M  END 
>  <HBA> 
2 
 
>  <HBD> 
0 
 
>  <TPSA> 
26.3 
 
>  <cid> 
22990 
 
>  <dipole> 
1.58 
 
>  <excitation_energy_1> 
5.148 
 
>  <excitation_energy_2> 
5.339 
 
>  <excitation_energy_3> 
5.606 
 
>  <excitation_energy_4> 
5.843 
 
>  <homo_energy> 
-6.278 
 
>  <homo_lumo_gap> 
6.063 
 
>  <logP> 
3.3 
 
>  <lumo_energy> 
-0.215 
 
>  <melting_point> 
38.28 
 
>  <molecular_refractivity> 
62.02 
 
>  <oscillator_strength_1> 
0.0028 
 
>  <oscillator_strength_2> 
0.1859 
 
>  <oscillator_strength_3> 
0.012 
 
>  <oscillator_strength_4> 
0.0016 
 
>  <open_babel_can_smiles> 
CCC(c1ccc(cc1)OC(=O)C)(C)C 
 
>  <mulliken_charges> 
33 
1   -0.452198 
2   -0.525927 
3   -0.442231 
4   -0.466906 
5   -0.246997 
6   -0.205314 
7   -0.2061 
8   -0.166728 
9   -0.139907 
10   0.592233 
11   0.183905 
12   0.34691 
13   0.018378 
14   -0.445239 
15   -0.517016 
16   0.141816 
17   0.14365 
18   0.155589 
19   0.184481 
20   0.183298 
21   0.186445 
22   0.138159 
23   0.143325 
24   0.148271 
25   0.141536 
26   0.146006 
27   0.149683 
28   0.128179 
29   0.130411 
30   0.130396 
31   0.132207 
32   0.136614 
33   0.153074 
 
>  <lowdin_charges> 
33 
1   -0.448437 
2   -0.464404 
3   -0.436175 
4   -0.442502 
5   -0.269663 
6   -0.168066 
7   -0.158822 
8   -0.173322 
9   -0.168709 
10   0.20674 
11   -0.003613 
12   0.098838 
13   0.013232 
14   -0.241276 
15   -0.167694 
16   0.15008 
17   0.147396 
18   0.152707 
19   0.177381 
20   0.178205 
21   0.181499 
22   0.14486 
23   0.149572 
24   0.15121 
25   0.149033 
26   0.148949 
27   0.149995 
28   0.138538 
29   0.14126 
30   0.163127 
31   0.158442 
32   0.166407 
33   0.175211 
 
$$$$ 
 
