PCCDB-ID:  48201 
public computational chemistry database (PCCDB) project, http://pccdb.org 
 
 30 29  0  0  0  0  0  0  0  0999 V2000 
    0.8897   -0.5023   -0.5251 C   0  0  0  0  0  0  0  0  0  0  0  0 
    3.0485   -1.7382    3.3644 C   0  0  0  0  0  0  0  0  0  0  0  0 
    6.9101    0.3346    0.9704 C   0  0  0  0  0  0  0  0  0  0  0  0 
    2.4179   -0.4973   -0.3786 C   0  0  0  0  0  0  0  0  0  0  0  0 
    2.5239   -0.9830    2.1345 C   0  0  0  0  0  0  0  0  0  0  0  0 
    5.3939    0.2200    1.1389 C   0  0  0  0  0  0  0  0  0  0  0  0 
    2.5457   -2.8863    0.3797 C   0  0  0  0  0  0  0  0  0  0  0  0 
    2.9687   -1.4460    0.7249 C   0  0  0  0  0  0  0  0  0  0  0  0 
    2.9527   -3.6390   -0.5552 N   0  0  0  0  0  0  0  0  0  0  0  0 
    1.5318   -3.3108    1.1794 O   0  0  0  0  0  0  0  0  0  0  0  0 
    5.4276   -2.4257    1.5024 O   0  0  0  0  0  0  0  0  0  0  0  0 
    5.1793   -1.5223   -0.8674 O   0  0  0  0  0  0  0  0  0  0  0  0 
    4.8539   -1.4354    0.5748 S   0  0  0  0  0  0  0  0  0  0  0  0 
    0.6039    0.1540   -1.3540 H   0  0  0  0  0  0  0  0  0  0  0  0 
    0.3830   -0.1384    0.3742 H   0  0  0  0  0  0  0  0  0  0  0  0 
    0.5093   -1.5040   -0.7472 H   0  0  0  0  0  0  0  0  0  0  0  0 
    2.5607   -1.3376    4.2603 H   0  0  0  0  0  0  0  0  0  0  0  0 
    4.1291   -1.6442    3.4917 H   0  0  0  0  0  0  0  0  0  0  0  0 
    2.8147   -2.8031    3.3002 H   0  0  0  0  0  0  0  0  0  0  0  0 
    7.2371    1.3222    1.3111 H   0  0  0  0  0  0  0  0  0  0  0  0 
    7.1941    0.2141   -0.0782 H   0  0  0  0  0  0  0  0  0  0  0  0 
    7.4253   -0.4264    1.5626 H   0  0  0  0  0  0  0  0  0  0  0  0 
    2.7508    0.5252   -0.1590 H   0  0  0  0  0  0  0  0  0  0  0  0 
    2.8747   -0.7814   -1.3305 H   0  0  0  0  0  0  0  0  0  0  0  0 
    2.7611    0.0853    2.2250 H   0  0  0  0  0  0  0  0  0  0  0  0 
    1.4319   -1.0454    2.1367 H   0  0  0  0  0  0  0  0  0  0  0  0 
    4.8622    0.9605    0.5355 H   0  0  0  0  0  0  0  0  0  0  0  0 
    5.0934    0.3189    2.1848 H   0  0  0  0  0  0  0  0  0  0  0  0 
    3.7153   -3.2219   -1.0906 H   0  0  0  0  0  0  0  0  0  0  0  0 
    1.3186   -4.2080    0.8574 H   0  0  0  0  0  0  0  0  0  0  0  0 
  1  4  1  0  0  0  0 
  1 15  1  0  0  0  0 
  2 18  1  0  0  0  0 
  2 17  1  0  0  0  0 
  3  6  1  0  0  0  0 
  3 20  1  0  0  0  0 
  3 22  1  0  0  0  0 
  4 23  1  0  0  0  0 
  4  8  1  0  0  0  0 
  5 26  1  0  0  0  0 
  5 25  1  0  0  0  0 
  5  2  1  0  0  0  0 
  6 28  1  0  0  0  0 
  7  8  1  0  0  0  0 
  7 10  1  0  0  0  0 
  8  5  1  0  0  0  0 
  9  7  2  0  0  0  0 
 12 13  2  0  0  0  0 
 13  8  1  0  0  0  0 
 13  6  1  0  0  0  0 
 13 11  2  0  0  0  0 
 14  1  1  0  0  0  0 
 16  1  1  0  0  0  0 
 19  2  1  0  0  0  0 
 21  3  1  0  0  0  0 
 24  4  1  0  0  0  0 
 27  6  1  0  0  0  0 
 29  9  1  0  0  0  0 
 30 10  1  0  0  0  0 
M  END 
>  <HBA> 
4 
 
>  <HBD> 
1 
 
>  <TPSA> 
85.61 
 
>  <cid> 
48201 
 
>  <dipole> 
5.02 
 
>  <excitation_energy_1> 
5.844 
 
>  <excitation_energy_2> 
6.508 
 
>  <excitation_energy_3> 
6.592 
 
>  <excitation_energy_4> 
6.668 
 
>  <homo_energy> 
-7.276 
 
>  <homo_lumo_gap> 
7.29 
 
>  <logP> 
2.246 
 
>  <lumo_energy> 
0.014 
 
>  <melting_point> 
88.41 
 
>  <molecular_refractivity> 
52.48 
 
>  <oscillator_strength_1> 
0.0047 
 
>  <oscillator_strength_2> 
0.1 
 
>  <oscillator_strength_3> 
0.0107 
 
>  <oscillator_strength_4> 
0.0296 
 
>  <open_babel_can_smiles> 
CCS(=O)(=O)C(C(=N)O)(CC)CC 
 
>  <mulliken_charges> 
30 
1   -0.458913 
2   -0.454099 
3   -0.46754 
4   -0.273097 
5   -0.282448 
6   -0.465511 
7   0.522461 
8   -0.231979 
9   -0.623009 
10   -0.595432 
11   -0.542695 
12   -0.579855 
13   1.161612 
14   0.156388 
15   0.153574 
16   0.170836 
17   0.139794 
18   0.171441 
19   0.177209 
20   0.164716 
21   0.191399 
22   0.191024 
23   0.140085 
24   0.187096 
25   0.135624 
26   0.180403 
27   0.188655 
28   0.195233 
29   0.331075 
30   0.415953 
 
>  <lowdin_charges> 
30 
1   -0.447344 
2   -0.451198 
3   -0.442137 
4   -0.276065 
5   -0.275232 
6   -0.423104 
7   0.130652 
8   -0.148126 
9   -0.414158 
10   -0.362909 
11   -0.597013 
12   -0.615596 
13   1.242373 
14   0.159869 
15   0.152553 
16   0.161182 
17   0.151527 
18   0.157086 
19   0.164359 
20   0.163979 
21   0.172521 
22   0.174745 
23   0.1442 
24   0.170388 
25   0.141686 
26   0.166804 
27   0.177525 
28   0.178451 
29   0.279652 
30   0.363331 
 
$$$$ 
 
