PCCDB-ID:  69141 
public computational chemistry database (PCCDB) project, http://pccdb.org 
 
 18 19  0  0  0  0  0  0  0  0999 V2000 
    2.4513   -0.6536    0.0188 C   0  0  0  0  0  0  0  0  0  0  0  0 
    2.4129    0.7509   -0.0235 C   0  0  0  0  0  0  0  0  0  0  0  0 
    1.2666   -1.3729    0.0242 C   0  0  0  0  0  0  0  0  0  0  0  0 
    1.2014    1.4236   -0.0605 C   0  0  0  0  0  0  0  0  0  0  0  0 
   -2.4544   -0.7075   -0.0493 C   0  0  0  0  0  0  0  0  0  0  0  0 
   -2.4073    0.6489   -0.0892 C   0  0  0  0  0  0  0  0  0  0  0  0 
    0.0238   -0.7197   -0.0123 C   0  0  0  0  0  0  0  0  0  0  0  0 
    0.0004    0.6911   -0.0552 C   0  0  0  0  0  0  0  0  0  0  0  0 
   -1.2369   -1.5098   -0.0050 C   0  0  0  0  0  0  0  0  0  0  0  0 
   -1.2252    1.3391   -0.0926 N   0  0  0  0  0  0  0  0  0  0  0  0 
   -1.2376   -2.7427    0.0351 O   0  0  0  0  0  0  0  0  0  0  0  0 
    3.4068   -1.1691    0.0470 H   0  0  0  0  0  0  0  0  0  0  0  0 
    3.3386    1.3198   -0.0271 H   0  0  0  0  0  0  0  0  0  0  0  0 
    1.2537   -2.4577    0.0570 H   0  0  0  0  0  0  0  0  0  0  0  0 
    1.1722    2.5107   -0.0928 H   0  0  0  0  0  0  0  0  0  0  0  0 
   -3.4069   -1.2245   -0.0486 H   0  0  0  0  0  0  0  0  0  0  0  0 
   -3.3003    1.2652   -0.1216 H   0  0  0  0  0  0  0  0  0  0  0  0 
   -1.2384    2.3482   -0.1228 H   0  0  0  0  0  0  0  0  0  0  0  0 
  1  3  1  0  0  0  0 
  1 12  1  0  0  0  0 
  2  1  2  0  0  0  0 
  3 14  1  0  0  0  0 
  4  8  2  0  0  0  0 
  4  2  1  0  0  0  0 
  5 16  1  0  0  0  0 
  5  9  1  0  0  0  0 
  6  5  2  0  0  0  0 
  7  9  1  0  0  0  0 
  7  3  2  0  0  0  0 
  8  7  1  0  0  0  0 
  9 11  2  0  0  0  0 
 10  6  1  0  0  0  0 
 10  8  1  0  0  0  0 
 13  2  1  0  0  0  0 
 15  4  1  0  0  0  0 
 17  6  1  0  0  0  0 
 18 10  1  0  0  0  0 
M  END 
>  <HBA> 
1 
 
>  <HBD> 
1 
 
>  <TPSA> 
32.86 
 
>  <cid> 
69141 
 
>  <dipole> 
5.89 
 
>  <excitation_energy_1> 
3.739 
 
>  <excitation_energy_2> 
4.184 
 
>  <excitation_energy_3> 
4.677 
 
>  <excitation_energy_4> 
4.753 
 
>  <homo_energy> 
-5.802 
 
>  <homo_lumo_gap> 
4.708 
 
>  <logP> 
1.528 
 
>  <lumo_energy> 
-1.094 
 
>  <melting_point> 
130.37 
 
>  <molecular_refractivity> 
44.57 
 
>  <oscillator_strength_1> 
0.0 
 
>  <oscillator_strength_2> 
0.1088 
 
>  <oscillator_strength_3> 
0.0455 
 
>  <oscillator_strength_4> 
0.0003 
 
>  <open_babel_can_smiles> 
O=c1cc[nH]c2c1cccc2 
 
>  <mulliken_charges> 
18 
1   -0.130691 
2   -0.133214 
3   -0.183022 
4   -0.175053 
5   -0.235904 
6   0.091147 
7   0.031164 
8   0.336388 
9   0.425749 
10   -0.704146 
11   -0.532459 
12   0.135709 
13   0.136821 
14   0.167285 
15   0.126017 
16   0.145593 
17   0.163748 
18   0.334868 
 
>  <lowdin_charges> 
18 
1   -0.167149 
2   -0.138398 
3   -0.119853 
4   -0.187751 
5   -0.233573 
6   -0.079716 
7   -0.057577 
8   0.055096 
9   0.127086 
10   -0.189048 
11   -0.302479 
12   0.161668 
13   0.162368 
14   0.178001 
15   0.153945 
16   0.175514 
17   0.17002 
18   0.291848 
 
$$$$ 
 
