PCCDB-ID:  35702 
public computational chemistry database (PCCDB) project, http://pccdb.org 
 
 29 32  0  0  0  0  0  0  0  0999 V2000 
    0.9315   -0.0178   -0.0745 C   0  0  0  0  0  0  0  0  0  0  0  0 
    7.8560    3.8807   -0.0742 C   0  0  0  0  0  0  0  0  0  0  0  0 
    6.6005    4.4952   -0.0735 C   0  0  0  0  0  0  0  0  0  0  0  0 
    6.8249   -2.1506   -0.0753 C   0  0  0  0  0  0  0  0  0  0  0  0 
    5.4514   -2.3330   -0.0747 C   0  0  0  0  0  0  0  0  0  0  0  0 
    7.9694    2.4849   -0.0744 C   0  0  0  0  0  0  0  0  0  0  0  0 
    5.4288    3.7283   -0.0735 C   0  0  0  0  0  0  0  0  0  0  0  0 
    7.4259   -0.8610   -0.0751 C   0  0  0  0  0  0  0  0  0  0  0  0 
    3.1572   -1.2005   -0.0740 C   0  0  0  0  0  0  0  0  0  0  0  0 
    3.1241    1.2482   -0.0740 C   0  0  0  0  0  0  0  0  0  0  0  0 
    2.4433   -0.0107   -0.0746 C   0  0  0  0  0  0  0  0  0  0  0  0 
    4.5819   -1.2054   -0.0739 C   0  0  0  0  0  0  0  0  0  0  0  0 
    6.8121    1.7130   -0.0745 C   0  0  0  0  0  0  0  0  0  0  0  0 
    5.5294    2.3408   -0.0743 C   0  0  0  0  0  0  0  0  0  0  0  0 
    6.6071    0.2509   -0.0741 C   0  0  0  0  0  0  0  0  0  0  0  0 
    4.5014    1.2811   -0.0741 C   0  0  0  0  0  0  0  0  0  0  0  0 
    5.2048    0.0501   -0.0738 C   0  0  0  0  0  0  0  0  0  0  0  0 
    0.5358   -1.0379   -0.0700 H   0  0  0  0  0  0  0  0  0  0  0  0 
    0.5297    0.4935   -0.9586 H   0  0  0  0  0  0  0  0  0  0  0  0 
    0.5297    0.5015    0.8049 H   0  0  0  0  0  0  0  0  0  0  0  0 
    8.7543    4.4921   -0.0745 H   0  0  0  0  0  0  0  0  0  0  0  0 
    6.5322    5.5797   -0.0724 H   0  0  0  0  0  0  0  0  0  0  0  0 
    7.4727   -3.0234   -0.0769 H   0  0  0  0  0  0  0  0  0  0  0  0 
    5.0365   -3.3381   -0.0754 H   0  0  0  0  0  0  0  0  0  0  0  0 
    8.9506    2.0165   -0.0741 H   0  0  0  0  0  0  0  0  0  0  0  0 
    4.4569    4.2156   -0.0728 H   0  0  0  0  0  0  0  0  0  0  0  0 
    8.5097   -0.7764   -0.0759 H   0  0  0  0  0  0  0  0  0  0  0  0 
    2.6188   -2.1460   -0.0737 H   0  0  0  0  0  0  0  0  0  0  0  0 
    2.5333    2.1622   -0.0727 H   0  0  0  0  0  0  0  0  0  0  0  0 
  1 18  1  0  0  0  0 
  1 20  1  0  0  0  0 
  2  3  2  0  0  0  0 
  3 22  1  0  0  0  0 
  4  8  1  0  0  0  0 
  4  5  2  0  0  0  0 
  5 12  1  0  0  0  0 
  6  2  1  0  0  0  0 
  6 25  1  0  0  0  0 
  7  3  1  0  0  0  0 
  7 26  1  0  0  0  0 
  8 15  2  0  0  0  0 
  9 12  1  0  0  0  0 
  9 28  1  0  0  0  0 
 10 29  1  0  0  0  0 
 11  1  1  0  0  0  0 
 11  9  2  0  0  0  0 
 11 10  1  0  0  0  0 
 12 17  2  0  0  0  0 
 13  6  2  0  0  0  0 
 13 14  1  0  0  0  0 
 13 15  1  0  0  0  0 
 14 16  1  0  0  0  0 
 14  7  2  0  0  0  0 
 15 17  1  0  0  0  0 
 16 10  2  0  0  0  0 
 16 17  1  0  0  0  0 
 19  1  1  0  0  0  0 
 21  2  1  0  0  0  0 
 23  4  1  0  0  0  0 
 24  5  1  0  0  0  0 
 27  8  1  0  0  0  0 
M  END 
>  <HBA> 
0 
 
>  <HBD> 
0 
 
>  <TPSA> 
0.0 
 
>  <cid> 
35702 
 
>  <dipole> 
0.6 
 
>  <excitation_energy_1> 
3.358 
 
>  <excitation_energy_2> 
3.567 
 
>  <excitation_energy_3> 
4.092 
 
>  <excitation_energy_4> 
4.565 
 
>  <homo_energy> 
-5.706 
 
>  <homo_lumo_gap> 
4.025 
 
>  <logP> 
4.796 
 
>  <lumo_energy> 
-1.682 
 
>  <melting_point> 
126.73 
 
>  <molecular_refractivity> 
73.34 
 
>  <oscillator_strength_1> 
0.0029 
 
>  <oscillator_strength_2> 
0.1651 
 
>  <oscillator_strength_3> 
0.0308 
 
>  <oscillator_strength_4> 
0.1629 
 
>  <open_babel_can_smiles> 
Cc1cc2cccc3c2c(c1)c1ccccc31 
 
>  <mulliken_charges> 
29 
1   -0.532122 
2   -0.136294 
3   -0.136825 
4   -0.130816 
5   -0.210295 
6   -0.196821 
7   -0.196312 
8   -0.223172 
9   -0.280814 
10   -0.274203 
11   0.187498 
12   0.213443 
13   0.060979 
14   0.062488 
15   0.118167 
16   0.125023 
17   -0.086358 
18   0.156848 
19   0.162509 
20   0.162401 
21   0.127643 
22   0.127459 
23   0.129398 
24   0.130026 
25   0.129412 
26   0.128918 
27   0.132428 
28   0.12316 
29   0.126234 
 
>  <lowdin_charges> 
29 
1   -0.442413 
2   -0.158407 
3   -0.155546 
4   -0.156742 
5   -0.154013 
6   -0.157798 
7   -0.157403 
8   -0.150022 
9   -0.168319 
10   -0.157019 
11   0.004337 
12   0.00078 
13   -0.006172 
14   -0.007955 
15   -0.005398 
16   -0.002759 
17   -0.019539 
18   0.156737 
19   0.161009 
20   0.160994 
21   0.158116 
22   0.155425 
23   0.159446 
24   0.157825 
25   0.157531 
26   0.15738 
27   0.157034 
28   0.155633 
29   0.157257 
 
$$$$ 
 
