PCCDB-ID:  68791 
public computational chemistry database (PCCDB) project, http://pccdb.org 
 
 13 14  0  0  1  0  0  0  0  0999 V2000 
    0.3541    1.3860    0.2600 C   0  0  0  0  0  0  0  0  0  0  0  0 
    0.9951    0.2691   -0.4895 C   0  0  1  0  0  0  0  0  0  0  0  0 
    0.9541   -1.1086    0.1488 C   0  0  0  0  0  0  0  0  0  0  0  0 
   -1.0878   -0.4639   -0.1476 C   0  0  0  0  0  0  0  0  0  0  0  0 
    1.9061   -1.9022    0.4374 N   0  0  0  0  0  0  0  0  0  0  0  0 
   -0.4067   -1.4374    0.3535 N   0  0  0  0  0  0  0  0  0  0  0  0 
   -0.4151    0.6285   -0.7628 N   0  0  0  0  0  0  0  0  0  0  0  0 
   -2.4145   -0.3888   -0.1507 O   0  0  0  0  0  0  0  0  0  0  0  0 
    0.5751    2.4121   -0.0204 H   0  0  0  0  0  0  0  0  0  0  0  0 
    0.0966    1.2296    1.3050 H   0  0  0  0  0  0  0  0  0  0  0  0 
    1.7167    0.4831   -1.2731 H   0  0  0  0  0  0  0  0  0  0  0  0 
    2.8038   -1.4698    0.2003 H   0  0  0  0  0  0  0  0  0  0  0  0 
   -2.7395   -1.1970    0.2872 H   0  0  0  0  0  0  0  0  0  0  0  0 
  1 10  1  0  0  0  0 
  2 11  1  6  0  0  0 
  2  3  1  0  0  0  0 
  2  1  1  0  0  0  0 
  3  6  2  0  0  0  0 
  3  5  1  0  0  0  0 
  4  6  2  0  0  0  0 
  7  2  1  0  0  0  0 
  7  4  1  0  0  0  0 
  7  1  1  0  0  0  0 
  8  4  1  0  0  0  0 
  8 13  1  0  0  0  0 
  9  1  1  0  0  0  0 
 12  5  1  0  0  0  0 
M  RAD  1   5   2 
M  END 
>  <HBA> 
4 
 
>  <HBD> 
1 
 
>  <TPSA> 
58.46 
 
>  <cid> 
68791 
 
>  <dipole> 
2.91 
 
>  <excitation_energy_1> 
5.007 
 
>  <excitation_energy_2> 
5.316 
 
>  <excitation_energy_3> 
5.84 
 
>  <excitation_energy_4> 
6.162 
 
>  <homo_energy> 
-6.887 
 
>  <homo_lumo_gap> 
6.044 
 
>  <logP> 
-0.765 
 
>  <lumo_energy> 
-0.844 
 
>  <melting_point> 
112.47 
 
>  <molecular_refractivity> 
34.23 
 
>  <oscillator_strength_1> 
0.0008 
 
>  <oscillator_strength_2> 
0.0766 
 
>  <oscillator_strength_3> 
0.1987 
 
>  <oscillator_strength_4> 
0.0002 
 
>  <open_babel_can_smiles> 
[NH]C1=[N]=C(N2[C@H]1C2)O 
 
>  <mulliken_charges> 
13 
1   -0.20534 
2   -0.108459 
3   0.450986 
4   0.623828 
5   -0.607304 
6   -0.466577 
7   -0.382319 
8   -0.573372 
9   0.185113 
10   0.187891 
11   0.180717 
12   0.282025 
13   0.432811 
 
>  <lowdin_charges> 
13 
1   -0.20591 
2   -0.121061 
3   0.077983 
4   0.162223 
5   -0.364477 
6   -0.22586 
7   -0.166898 
8   -0.312093 
9   0.17469 
10   0.169638 
11   0.177038 
12   0.255106 
13   0.379621 
 
$$$$ 
 
