PCCDB-ID:  31217 
public computational chemistry database (PCCDB) project, http://pccdb.org 
 
 21 22  0  0  1  0  0  0  0  0999 V2000 
   -3.8557    1.2030    0.3872 C   0  0  0  0  0  0  0  0  0  0  0  0 
   -3.1289    2.2215   -0.2245 C   0  0  0  0  0  0  0  0  0  0  0  0 
   -3.1896    0.0464    0.8076 C   0  0  0  0  0  0  0  0  0  0  0  0 
   -1.7490    2.1027   -0.4213 C   0  0  0  0  0  0  0  0  0  0  0  0 
   -1.8187   -0.0876    0.6184 C   0  0  0  0  0  0  0  0  0  0  0  0 
    1.0421    1.7030   -0.7851 C   0  0  0  0  0  0  0  0  0  0  0  0 
    3.4637    1.5482    0.1398 C   0  0  0  0  0  0  0  0  0  0  0  0 
   -1.0927    0.9419    0.0024 C   0  0  0  0  0  0  0  0  0  0  0  0 
    2.4522    1.1693   -0.8539 C   0  0  2  0  0  0  0  0  0  0  0  0 
    0.2513    0.7178   -0.1325 O   0  0  0  0  0  0  0  0  0  0  0  0 
    3.4490    2.1471   -1.1651 O   0  0  0  0  0  0  0  0  0  0  0  0 
   -4.9264    1.3057    0.5366 H   0  0  0  0  0  0  0  0  0  0  0  0 
   -3.6319    3.1263   -0.5558 H   0  0  0  0  0  0  0  0  0  0  0  0 
   -3.7424   -0.7578    1.2859 H   0  0  0  0  0  0  0  0  0  0  0  0 
   -1.2058    2.9101   -0.8993 H   0  0  0  0  0  0  0  0  0  0  0  0 
   -1.2862   -0.9783    0.9375 H   0  0  0  0  0  0  0  0  0  0  0  0 
    0.6620    1.8921   -1.7996 H   0  0  0  0  0  0  0  0  0  0  0  0 
    1.0305    2.6537   -0.2341 H   0  0  0  0  0  0  0  0  0  0  0  0 
    4.3034    0.8821    0.3365 H   0  0  0  0  0  0  0  0  0  0  0  0 
    3.1892    2.2112    0.9605 H   0  0  0  0  0  0  0  0  0  0  0  0 
    2.5611    0.2172   -1.3757 H   0  0  0  0  0  0  0  0  0  0  0  0 
  1 12  1  0  0  0  0 
  1  3  2  0  0  0  0 
  2  1  1  0  0  0  0 
  3 14  1  0  0  0  0 
  4  2  2  0  0  0  0 
  4  8  1  0  0  0  0 
  5  3  1  0  0  0  0 
  5 16  1  0  0  0  0 
  6 18  1  0  0  0  0 
  6 10  1  0  0  0  0 
  7 19  1  0  0  0  0 
  7 20  1  0  0  0  0 
  8  5  2  0  0  0  0 
  9 21  1  6  0  0  0 
  9  6  1  0  0  0  0 
  9  7  1  0  0  0  0 
 10  8  1  0  0  0  0 
 11  9  1  0  0  0  0 
 11  7  1  0  0  0  0 
 13  2  1  0  0  0  0 
 15  4  1  0  0  0  0 
 17  6  1  0  0  0  0 
M  END 
>  <HBA> 
2 
 
>  <HBD> 
0 
 
>  <TPSA> 
21.76 
 
>  <cid> 
31217 
 
>  <dipole> 
0.85 
 
>  <excitation_energy_1> 
5.075 
 
>  <excitation_energy_2> 
5.642 
 
>  <excitation_energy_3> 
5.778 
 
>  <excitation_energy_4> 
5.931 
 
>  <homo_energy> 
-6.0 
 
>  <homo_lumo_gap> 
5.995 
 
>  <logP> 
1.464 
 
>  <lumo_energy> 
-0.005 
 
>  <melting_point> 
20.72 
 
>  <molecular_refractivity> 
41.52 
 
>  <oscillator_strength_1> 
0.0308 
 
>  <oscillator_strength_2> 
0.0005 
 
>  <oscillator_strength_3> 
0.0956 
 
>  <oscillator_strength_4> 
0.0036 
 
>  <open_babel_can_smiles> 
O1C[C@H]1COc1ccccc1 
 
>  <mulliken_charges> 
21 
1   -0.132523 
2   -0.138281 
3   -0.132846 
4   -0.194977 
5   -0.175482 
6   -0.054411 
7   -0.103234 
8   0.379548 
9   0.088939 
10   -0.52526 
11   -0.444949 
12   0.12661 
13   0.130979 
14   0.130979 
15   0.1366 
16   0.136154 
17   0.152966 
18   0.148532 
19   0.15731 
20   0.155405 
21   0.157941 
 
>  <lowdin_charges> 
21 
1   -0.175846 
2   -0.145932 
3   -0.147373 
4   -0.215859 
5   -0.184058 
6   -0.131094 
7   -0.1616 
8   0.104483 
9   -0.024731 
10   -0.20382 
11   -0.282138 
12   0.15553 
13   0.158682 
14   0.159959 
15   0.164325 
16   0.166191 
17   0.146282 
18   0.146254 
19   0.158645 
20   0.156185 
21   0.155914 
 
$$$$ 
 
