PCCDB-ID:  69675 
public computational chemistry database (PCCDB) project, http://pccdb.org 
 
 20 20  0  0  0  0  0  0  0  0999 V2000 
    0.9837    0.1000    0.0219 C   0  0  0  0  0  0  0  0  0  0  0  0 
    4.5646   -3.6847   -0.6281 C   0  0  0  0  0  0  0  0  0  0  0  0 
    4.6237    1.1994   -0.2408 C   0  0  0  0  0  0  0  0  0  0  0  0 
    3.2304    1.2532   -0.1425 C   0  0  0  0  0  0  0  0  0  0  0  0 
    5.2862   -0.0189   -0.3128 C   0  0  0  0  0  0  0  0  0  0  0  0 
    3.1573   -1.1606   -0.2009 C   0  0  0  0  0  0  0  0  0  0  0  0 
    2.4892    0.0680   -0.1167 C   0  0  0  0  0  0  0  0  0  0  0  0 
    4.5580   -1.2254   -0.2927 C   0  0  0  0  0  0  0  0  0  0  0  0 
    5.2440   -2.4382   -0.3318 N   0  0  0  0  0  0  0  0  0  0  0  0 
    0.5697    1.0501   -0.3319 H   0  0  0  0  0  0  0  0  0  0  0  0 
    0.6779   -0.0190    1.0701 H   0  0  0  0  0  0  0  0  0  0  0  0 
    0.5091   -0.7082   -0.5460 H   0  0  0  0  0  0  0  0  0  0  0  0 
    5.3096   -4.4828   -0.6882 H   0  0  0  0  0  0  0  0  0  0  0  0 
    3.9963   -3.6640   -1.5730 H   0  0  0  0  0  0  0  0  0  0  0  0 
    3.8693   -3.9440    0.1786 H   0  0  0  0  0  0  0  0  0  0  0  0 
    5.2002    2.1210   -0.2648 H   0  0  0  0  0  0  0  0  0  0  0  0 
    2.7222    2.2125   -0.0871 H   0  0  0  0  0  0  0  0  0  0  0  0 
    6.3718   -0.0506   -0.3835 H   0  0  0  0  0  0  0  0  0  0  0  0 
    2.5729   -2.0757   -0.1918 H   0  0  0  0  0  0  0  0  0  0  0  0 
    6.1691   -2.3651   -0.7334 H   0  0  0  0  0  0  0  0  0  0  0  0 
  1 11  1  0  0  0  0 
  2  9  1  0  0  0  0 
  2 15  1  0  0  0  0 
  3  4  2  0  0  0  0 
  4  7  1  0  0  0  0 
  4 17  1  0  0  0  0 
  5  8  2  0  0  0  0 
  5  3  1  0  0  0  0 
  6 19  1  0  0  0  0 
  6  7  2  0  0  0  0 
  7  1  1  0  0  0  0 
  8  6  1  0  0  0  0 
  9  8  1  0  0  0  0 
 10  1  1  0  0  0  0 
 12  1  1  0  0  0  0 
 13  2  1  0  0  0  0 
 14  2  1  0  0  0  0 
 16  3  1  0  0  0  0 
 18  5  1  0  0  0  0 
 20  9  1  0  0  0  0 
M  END 
>  <HBA> 
1 
 
>  <HBD> 
1 
 
>  <TPSA> 
12.03 
 
>  <cid> 
69675 
 
>  <dipole> 
1.61 
 
>  <excitation_energy_1> 
4.515 
 
>  <excitation_energy_2> 
4.649 
 
>  <excitation_energy_3> 
5.04 
 
>  <excitation_energy_4> 
5.231 
 
>  <homo_energy> 
-5.119 
 
>  <homo_lumo_gap> 
5.47 
 
>  <logP> 
2.11 
 
>  <lumo_energy> 
0.351 
 
>  <melting_point> 
42.71 
 
>  <molecular_refractivity> 
40.71 
 
>  <oscillator_strength_1> 
0.0307 
 
>  <oscillator_strength_2> 
0.017 
 
>  <oscillator_strength_3> 
0.0255 
 
>  <oscillator_strength_4> 
0.0098 
 
>  <open_babel_can_smiles> 
CNc1cccc(c1)C 
 
>  <mulliken_charges> 
20 
1   -0.528658 
2   -0.30226 
3   -0.130688 
4   -0.192277 
5   -0.193376 
6   -0.240718 
7   0.174557 
8   0.353401 
9   -0.63839 
10   0.153232 
11   0.1625 
12   0.152212 
13   0.152748 
14   0.145443 
15   0.164484 
16   0.121225 
17   0.110525 
18   0.110064 
19   0.112448 
20   0.313526 
 
>  <lowdin_charges> 
20 
1   -0.441882 
2   -0.355017 
3   -0.147126 
4   -0.20158 
5   -0.203579 
6   -0.222259 
7   0.012671 
8   0.060021 
9   -0.29914 
10   0.156055 
11   0.158935 
12   0.156278 
13   0.157345 
14   0.136734 
15   0.1544 
16   0.154666 
17   0.150464 
18   0.147171 
19   0.153766 
20   0.272076 
 
$$$$ 
 
