PCCDB-ID:  8513 
public computational chemistry database (PCCDB) project, http://pccdb.org 
 
 28 30  0  0  0  0  0  0  0  0999 V2000 
    3.7114    0.6813    0.0348 C   0  0  0  0  0  0  0  0  0  0  0  0 
   -3.6708   -0.6585   -0.0394 C   0  0  0  0  0  0  0  0  0  0  0  0 
    2.4998    1.3841    0.0212 C   0  0  0  0  0  0  0  0  0  0  0  0 
   -2.4592   -1.3612   -0.0258 C   0  0  0  0  0  0  0  0  0  0  0  0 
    3.7288   -0.7007    0.0481 C   0  0  0  0  0  0  0  0  0  0  0  0 
   -3.6882    0.7235   -0.0527 C   0  0  0  0  0  0  0  0  0  0  0  0 
    1.3011    0.6808    0.0157 C   0  0  0  0  0  0  0  0  0  0  0  0 
   -1.2606   -0.6579   -0.0204 C   0  0  0  0  0  0  0  0  0  0  0  0 
    2.5242   -1.4468    0.0484 C   0  0  0  0  0  0  0  0  0  0  0  0 
   -2.4837    1.4697   -0.0532 C   0  0  0  0  0  0  0  0  0  0  0  0 
    1.2826   -0.7379    0.0257 C   0  0  0  0  0  0  0  0  0  0  0  0 
   -1.2421    0.7608   -0.0305 C   0  0  0  0  0  0  0  0  0  0  0  0 
    0.0350    1.4779   -0.0061 C   0  0  0  0  0  0  0  0  0  0  0  0 
    0.0055   -1.4550    0.0011 C   0  0  0  0  0  0  0  0  0  0  0  0 
    2.5720   -2.8040    0.0870 N   0  0  0  0  0  0  0  0  0  0  0  0 
   -2.5316    2.8268   -0.0916 N   0  0  0  0  0  0  0  0  0  0  0  0 
    0.1038    2.7184   -0.0005 O   0  0  0  0  0  0  0  0  0  0  0  0 
   -0.0633   -2.6954   -0.0047 O   0  0  0  0  0  0  0  0  0  0  0  0 
    4.6518    1.2264    0.0348 H   0  0  0  0  0  0  0  0  0  0  0  0 
   -4.6112   -1.2036   -0.0390 H   0  0  0  0  0  0  0  0  0  0  0  0 
    2.4698    2.4669    0.0129 H   0  0  0  0  0  0  0  0  0  0  0  0 
   -2.4292   -2.4440   -0.0174 H   0  0  0  0  0  0  0  0  0  0  0  0 
    4.6739   -1.2388    0.0633 H   0  0  0  0  0  0  0  0  0  0  0  0 
   -4.6334    1.2616   -0.0675 H   0  0  0  0  0  0  0  0  0  0  0  0 
    3.4556   -3.2785   -0.0119 H   0  0  0  0  0  0  0  0  0  0  0  0 
    1.6950   -3.3085    0.0109 H   0  0  0  0  0  0  0  0  0  0  0  0 
   -3.4153    3.3013    0.0069 H   0  0  0  0  0  0  0  0  0  0  0  0 
   -1.6547    3.3316   -0.0158 H   0  0  0  0  0  0  0  0  0  0  0  0 
  1  5  2  0  0  0  0 
  2 20  1  0  0  0  0 
  2  4  2  0  0  0  0 
  3  1  1  0  0  0  0 
  4  8  1  0  0  0  0 
  4 22  1  0  0  0  0 
  5  9  1  0  0  0  0 
  5 23  1  0  0  0  0 
  6  2  1  0  0  0  0 
  7  3  2  0  0  0  0 
  7 11  1  0  0  0  0 
  8 14  1  0  0  0  0 
  9 15  1  0  0  0  0 
 10  6  2  0  0  0  0 
 10 12  1  0  0  0  0 
 11  9  2  0  0  0  0 
 12  8  2  0  0  0  0 
 12 13  1  0  0  0  0 
 13 17  2  0  0  0  0 
 13  7  1  0  0  0  0 
 14 11  1  0  0  0  0 
 16 10  1  0  0  0  0 
 16 28  1  0  0  0  0 
 16 27  1  0  0  0  0 
 18 14  2  0  0  0  0 
 19  1  1  0  0  0  0 
 21  3  1  0  0  0  0 
 24  6  1  0  0  0  0 
 25 15  1  0  0  0  0 
 26 15  1  0  0  0  0 
M  END 
>  <HBA> 
4 
 
>  <HBD> 
2 
 
>  <TPSA> 
86.18 
 
>  <cid> 
8513 
 
>  <dipole> 
0.0 
 
>  <excitation_energy_1> 
2.655 
 
>  <excitation_energy_2> 
2.808 
 
>  <excitation_energy_3> 
3.093 
 
>  <excitation_energy_4> 
3.369 
 
>  <homo_energy> 
-5.557 
 
>  <homo_lumo_gap> 
3.118 
 
>  <logP> 
2.789 
 
>  <lumo_energy> 
-2.438 
 
>  <melting_point> 
223.2 
 
>  <molecular_refractivity> 
68.56 
 
>  <oscillator_strength_1> 
0.2283 
 
>  <oscillator_strength_2> 
0.0 
 
>  <oscillator_strength_3> 
0.0 
 
>  <oscillator_strength_4> 
0.0001 
 
>  <open_babel_can_smiles> 
Nc1cccc2c1C(=O)c1cccc(c1C2=O)N 
 
>  <mulliken_charges> 
28 
1   -0.129324 
2   -0.129315 
3   -0.189699 
4   -0.189704 
5   -0.170198 
6   -0.17021 
7   0.034596 
8   0.034617 
9   0.322272 
10   0.322314 
11   0.01963 
12   0.01962 
13   0.353644 
14   0.353591 
15   -0.828299 
16   -0.828324 
17   -0.546585 
18   -0.546537 
19   0.138599 
20   0.138597 
21   0.158694 
22   0.158695 
23   0.125188 
24   0.125185 
25   0.328051 
26   0.383422 
27   0.32806 
28   0.38342 
 
>  <lowdin_charges> 
28 
1   -0.128597 
2   -0.128599 
3   -0.161622 
4   -0.161623 
5   -0.190782 
6   -0.190783 
7   -0.019014 
8   -0.019017 
9   0.096637 
10   0.096652 
11   -0.089209 
12   -0.089204 
13   0.153274 
14   0.153242 
15   -0.457175 
16   -0.457171 
17   -0.291301 
18   -0.291239 
19   0.163059 
20   0.163059 
21   0.175004 
22   0.175005 
23   0.157053 
24   0.157051 
25   0.283119 
26   0.309529 
27   0.28312 
28   0.309532 
 
$$$$ 
 
