PCCDB-ID:  73327 
public computational chemistry database (PCCDB) project, http://pccdb.org 
 
 22 22  0  0  0  0  0  0  0  0999 V2000 
   -1.0195    0.4818   -1.6931 C   0  0  0  0  0  0  0  0  0  0  0  0 
    0.7106   -1.1727   -1.6547 C   0  0  0  0  0  0  0  0  0  0  0  0 
   -1.9081   -0.5345   -2.0372 C   0  0  0  0  0  0  0  0  0  0  0  0 
   -0.2592   -2.1119   -2.0099 C   0  0  0  0  0  0  0  0  0  0  0  0 
    3.4036    1.8595   -0.0110 C   0  0  0  0  0  0  0  0  0  0  0  0 
    3.5910    1.7136    1.4927 C   0  0  0  0  0  0  0  0  0  0  0  0 
    0.3247    0.1609   -1.4819 C   0  0  0  0  0  0  0  0  0  0  0  0 
    1.2653    1.2795   -1.1062 C   0  0  0  0  0  0  0  0  0  0  0  0 
   -1.5509   -1.8169   -2.1950 N   0  0  0  0  0  0  0  0  0  0  0  0 
    2.4337    0.8996   -0.5108 N   0  0  0  0  0  0  0  0  0  0  0  0 
    4.0041    0.3675    1.7287 O   0  0  0  0  0  0  0  0  0  0  0  0 
    0.9762    2.4512   -1.3337 O   0  0  0  0  0  0  0  0  0  0  0  0 
   -1.3440    1.5113   -1.5891 H   0  0  0  0  0  0  0  0  0  0  0  0 
    1.7452   -1.4873   -1.5525 H   0  0  0  0  0  0  0  0  0  0  0  0 
   -2.9614   -0.3105   -2.1966 H   0  0  0  0  0  0  0  0  0  0  0  0 
    0.0198   -3.1543   -2.1555 H   0  0  0  0  0  0  0  0  0  0  0  0 
    4.3690    1.7053   -0.5101 H   0  0  0  0  0  0  0  0  0  0  0  0 
    3.0369    2.8570   -0.2618 H   0  0  0  0  0  0  0  0  0  0  0  0 
    2.6438    1.9345    2.0068 H   0  0  0  0  0  0  0  0  0  0  0  0 
    4.3486    2.4332    1.8398 H   0  0  0  0  0  0  0  0  0  0  0  0 
    2.5427   -0.0487   -0.1788 H   0  0  0  0  0  0  0  0  0  0  0  0 
    3.9986    0.2086    2.6842 H   0  0  0  0  0  0  0  0  0  0  0  0 
  1 13  1  0  0  0  0 
  1  7  2  0  0  0  0 
  2 14  1  0  0  0  0 
  2  7  1  0  0  0  0 
  3  1  1  0  0  0  0 
  4  2  2  0  0  0  0 
  5  6  1  0  0  0  0 
  6 11  1  0  0  0  0 
  6 20  1  0  0  0  0 
  6 19  1  0  0  0  0 
  7  8  1  0  0  0  0 
  8 10  1  0  0  0  0 
  9  3  2  0  0  0  0 
  9  4  1  0  0  0  0 
 10 21  1  0  0  0  0 
 10  5  1  0  0  0  0 
 11 22  1  0  0  0  0 
 12  8  2  0  0  0  0 
 15  3  1  0  0  0  0 
 16  4  1  0  0  0  0 
 17  5  1  0  0  0  0 
 18  5  1  0  0  0  0 
M  END 
>  <HBA> 
4 
 
>  <HBD> 
2 
 
>  <TPSA> 
62.22 
 
>  <cid> 
73327 
 
>  <dipole> 
4.29 
 
>  <excitation_energy_1> 
4.314 
 
>  <excitation_energy_2> 
4.552 
 
>  <excitation_energy_3> 
4.979 
 
>  <excitation_energy_4> 
5.11 
 
>  <homo_energy> 
-6.836 
 
>  <homo_lumo_gap> 
5.467 
 
>  <logP> 
0.195 
 
>  <lumo_energy> 
-1.369 
 
>  <melting_point> 
98.85 
 
>  <molecular_refractivity> 
43.2 
 
>  <oscillator_strength_1> 
0.0026 
 
>  <oscillator_strength_2> 
0.0036 
 
>  <oscillator_strength_3> 
0.0176 
 
>  <oscillator_strength_4> 
0.0972 
 
>  <open_babel_can_smiles> 
OCCNC(=O)c1ccncc1 
 
>  <mulliken_charges> 
22 
1   -0.163331 
2   -0.193471 
3   0.034027 
4   0.036876 
5   -0.138315 
6   -0.044648 
7   0.09062 
8   0.563578 
9   -0.401526 
10   -0.610339 
11   -0.625534 
12   -0.520089 
13   0.16865 
14   0.139402 
15   0.146929 
16   0.144807 
17   0.16232 
18   0.19367 
19   0.138446 
20   0.13383 
21   0.34262 
22   0.401478 
 
>  <lowdin_charges> 
22 
1   -0.15182 
2   -0.179809 
3   -0.08595 
4   -0.087575 
5   -0.203218 
6   -0.141657 
7   -0.014402 
8   0.156688 
9   -0.141782 
10   -0.26475 
11   -0.478492 
12   -0.308871 
13   0.181215 
14   0.162395 
15   0.158206 
16   0.157301 
17   0.154175 
18   0.179558 
19   0.136122 
20   0.137754 
21   0.286481 
22   0.348431 
 
$$$$ 
 
