PCCDB-ID:  43411 
public computational chemistry database (PCCDB) project, http://pccdb.org 
 
 23 24  0  0  1  0  0  0  0  0999 V2000 
    1.9273    0.6882   -0.7403 C   0  0  0  0  0  0  0  0  0  0  0  0 
    1.6390    0.9348    0.5853 C   0  0  0  0  0  0  0  0  0  0  0  0 
    0.8260   -1.3125   -0.1691 C   0  0  0  0  0  0  0  0  0  0  0  0 
   -1.8817    1.1034   -0.5482 C   0  0  0  0  0  0  0  0  0  0  0  0 
    1.8298   -0.7502   -0.9209 C   0  0  0  0  0  0  0  0  0  0  0  0 
    0.1939    1.0189    0.9163 C   0  0  1  0  0  0  0  0  0  0  0  0 
   -0.6760    1.7847   -0.0869 C   0  0  0  0  0  0  0  0  0  0  0  0 
   -0.0450   -0.5760    0.8293 C   0  0  1  0  0  0  0  0  0  0  0  0 
   -2.1937   -0.1632   -0.1695 C   0  0  0  0  0  0  0  0  0  0  0  0 
   -3.4517   -0.8724   -0.6341 C   0  0  0  0  0  0  0  0  0  0  0  0 
    2.4601   -1.4815   -1.8776 O   0  0  0  0  0  0  0  0  0  0  0  0 
   -0.3810    2.9182   -0.4371 O   0  0  0  0  0  0  0  0  0  0  0  0 
   -4.5214   -0.0726   -0.8565 O   0  0  0  0  0  0  0  0  0  0  0  0 
   -3.4975   -2.0600   -0.8159 O   0  0  0  0  0  0  0  0  0  0  0  0 
   -1.4495   -0.9475    0.6092 O   0  0  0  0  0  0  0  0  0  0  0  0 
    1.5105    1.3206   -1.5246 H   0  0  0  0  0  0  0  0  0  0  0  0 
    2.1968    0.3527    1.3218 H   0  0  0  0  0  0  0  0  0  0  0  0 
    0.5612   -2.3575   -0.3188 H   0  0  0  0  0  0  0  0  0  0  0  0 
   -2.5174    1.6508   -1.2361 H   0  0  0  0  0  0  0  0  0  0  0  0 
   -0.0621    1.3562    1.9293 H   0  0  0  0  0  0  0  0  0  0  0  0 
    0.1316   -0.9654    1.8355 H   0  0  0  0  0  0  0  0  0  0  0  0 
    3.1409   -0.9204   -2.2802 H   0  0  0  0  0  0  0  0  0  0  0  0 
   -4.3349    0.8269   -0.5375 H   0  0  0  0  0  0  0  0  0  0  0  0 
  1  2  1  0  0  0  0 
  2  6  1  0  0  0  0 
  2 17  1  0  0  0  0 
  3  8  1  0  0  0  0 
  4  9  2  0  0  0  0 
  4  7  1  0  0  0  0 
  5  1  1  0  0  0  0 
  5  3  2  0  0  0  0 
  6 20  1  1  0  0  0 
  7  6  1  0  0  0  0 
  8  6  1  0  0  0  0 
  8 21  1  1  0  0  0 
  9 15  1  0  0  0  0 
 10  9  1  0  0  0  0 
 11  5  1  0  0  0  0 
 12  7  2  0  0  0  0 
 13 10  1  0  0  0  0 
 13 23  1  0  0  0  0 
 14 10  2  0  0  0  0 
 15  8  1  0  0  0  0 
 16  1  1  0  0  0  0 
 18  3  1  0  0  0  0 
 19  4  1  0  0  0  0 
 22 11  1  0  0  0  0 
M  RAD  2   1   2   2   2 
M  END 
>  <HBA> 
5 
 
>  <HBD> 
2 
 
>  <TPSA> 
83.83 
 
>  <cid> 
43411 
 
>  <dipole> 
2.9 
 
>  <excitation_energy_1> 
2.956 
 
>  <excitation_energy_2> 
3.349 
 
>  <excitation_energy_3> 
3.736 
 
>  <excitation_energy_4> 
3.795 
 
>  <homo_energy> 
-6.242 
 
>  <homo_lumo_gap> 
3.834 
 
>  <logP> 
0.551 
 
>  <lumo_energy> 
-2.408 
 
>  <melting_point> 
153.04 
 
>  <molecular_refractivity> 
49.16 
 
>  <oscillator_strength_1> 
0.0034 
 
>  <oscillator_strength_2> 
0.0002 
 
>  <oscillator_strength_3> 
0.0085 
 
>  <oscillator_strength_4> 
0.0508 
 
>  <open_babel_can_smiles> 
OC1=C[C@H]2[C@@H]([CH][CH]1)C(=O)C=C(O2)C(=O)O 
 
>  <mulliken_charges> 
23 
1   -0.241686 
2   -0.121994 
3   -0.165984 
4   -0.27841 
5   0.336654 
6   -0.235682 
7   0.46563 
8   0.063594 
9   0.307494 
10   0.566322 
11   -0.608832 
12   -0.475804 
13   -0.559475 
14   -0.410795 
15   -0.482434 
16   0.172685 
17   0.152125 
18   0.169814 
19   0.159579 
20   0.177464 
21   0.177279 
22   0.415334 
23   0.417121 
 
>  <lowdin_charges> 
23 
1   -0.243764 
2   -0.127373 
3   -0.215952 
4   -0.274824 
5   0.108906 
6   -0.15038 
7   0.152241 
8   0.013208 
9   0.088788 
10   0.181219 
11   -0.362705 
12   -0.23549 
13   -0.338361 
14   -0.198337 
15   -0.156353 
16   0.173045 
17   0.159848 
18   0.177695 
19   0.18121 
20   0.170759 
21   0.167982 
22   0.365906 
23   0.362733 
 
$$$$ 
 
