PCCDB-ID:  15111 
public computational chemistry database (PCCDB) project, http://pccdb.org 
 
 24 25  0  0  0  0  0  0  0  0999 V2000 
   -1.2820    0.3481   -0.5150 C   0  0  0  0  0  0  0  0  0  0  0  0 
   -0.3607    1.1537   -1.1855 C   0  0  0  0  0  0  0  0  0  0  0  0 
   -0.8313   -0.6481    0.3544 C   0  0  0  0  0  0  0  0  0  0  0  0 
    1.0085    0.9635   -0.9922 C   0  0  0  0  0  0  0  0  0  0  0  0 
    0.5339   -0.8468    0.5614 C   0  0  0  0  0  0  0  0  0  0  0  0 
    1.4346   -0.0357   -0.1236 C   0  0  0  0  0  0  0  0  0  0  0  0 
    3.7372   -3.4867   -0.6127 C   0  0  0  0  0  0  0  0  0  0  0  0 
    5.7381   -2.1282    0.0503 C   0  0  0  0  0  0  0  0  0  0  0  0 
    3.4874   -1.2677   -0.0795 C   0  0  0  0  0  0  0  0  0  0  0  0 
    3.2152   -4.5993   -0.9615 N   0  0  0  0  0  0  0  0  0  0  0  0 
    6.9693   -1.8980    0.2995 N   0  0  0  0  0  0  0  0  0  0  0  0 
    5.1265   -3.3033   -0.3626 N   0  0  0  0  0  0  0  0  0  0  0  0 
    2.9353   -2.3613   -0.4568 N   0  0  0  0  0  0  0  0  0  0  0  0 
    4.8175   -1.0913    0.1935 N   0  0  0  0  0  0  0  0  0  0  0  0 
    2.8188   -0.1116    0.1011 O   0  0  0  0  0  0  0  0  0  0  0  0 
   -2.3472    0.4944   -0.6689 H   0  0  0  0  0  0  0  0  0  0  0  0 
   -0.7031    1.9310   -1.8627 H   0  0  0  0  0  0  0  0  0  0  0  0 
   -1.5448   -1.2796    0.8760 H   0  0  0  0  0  0  0  0  0  0  0  0 
    1.7445    1.5776   -1.5012 H   0  0  0  0  0  0  0  0  0  0  0  0 
    0.8923   -1.6230    1.2263 H   0  0  0  0  0  0  0  0  0  0  0  0 
    3.9226   -5.3351   -1.0338 H   0  0  0  0  0  0  0  0  0  0  0  0 
    7.5462   -2.7276    0.1592 H   0  0  0  0  0  0  0  0  0  0  0  0 
    5.7300   -4.1052   -0.4838 H   0  0  0  0  0  0  0  0  0  0  0  0 
    5.1741   -0.1907    0.4839 H   0  0  0  0  0  0  0  0  0  0  0  0 
  1  3  2  0  0  0  0 
  2  4  2  0  0  0  0 
  2  1  1  0  0  0  0 
  3  5  1  0  0  0  0 
  3 18  1  0  0  0  0 
  4  6  1  0  0  0  0 
  5 20  1  0  0  0  0 
  6 15  1  0  0  0  0 
  6  5  2  0  0  0  0 
  7 13  2  0  0  0  0 
  7 12  1  0  0  0  0 
  8 14  1  0  0  0  0 
  8 11  2  0  0  0  0 
  9 15  1  0  0  0  0 
  9 14  1  0  0  0  0 
 10  7  1  0  0  0  0 
 12  8  1  0  0  0  0 
 13  9  2  0  0  0  0 
 14 24  1  0  0  0  0 
 16  1  1  0  0  0  0 
 17  2  1  0  0  0  0 
 19  4  1  0  0  0  0 
 21 10  1  0  0  0  0 
 22 11  1  0  0  0  0 
 23 12  1  0  0  0  0 
M  RAD  1  10   2 
M  END 
>  <HBA> 
6 
 
>  <HBD> 
2 
 
>  <TPSA> 
99.94 
 
>  <cid> 
15111 
 
>  <dipole> 
1.4 
 
>  <excitation_energy_1> 
5.252 
 
>  <excitation_energy_2> 
5.312 
 
>  <excitation_energy_3> 
5.444 
 
>  <excitation_energy_4> 
5.475 
 
>  <homo_energy> 
-6.482 
 
>  <homo_lumo_gap> 
6.011 
 
>  <logP> 
1.991 
 
>  <lumo_energy> 
-0.471 
 
>  <melting_point> 
187.58 
 
>  <molecular_refractivity> 
55.15 
 
>  <oscillator_strength_1> 
0.0491 
 
>  <oscillator_strength_2> 
0.0662 
 
>  <oscillator_strength_3> 
0.0026 
 
>  <oscillator_strength_4> 
0.0725 
 
>  <open_babel_can_smiles> 
N=C1NC(=[N]=C(N1)Oc1ccccc1)[NH] 
 
>  <mulliken_charges> 
24 
1   -0.119288 
2   -0.140711 
3   -0.144896 
4   -0.156324 
5   -0.118549 
6   0.341857 
7   0.611125 
8   0.694967 
9   0.760299 
10   -0.610247 
11   -0.649334 
12   -0.699146 
13   -0.49289 
14   -0.673176 
15   -0.559264 
16   0.135122 
17   0.138247 
18   0.141372 
19   0.142472 
20   0.157303 
21   0.264863 
22   0.281644 
23   0.330039 
24   0.364514 
 
>  <lowdin_charges> 
24 
1   -0.155681 
2   -0.148374 
3   -0.146685 
4   -0.170731 
5   -0.156088 
6   0.108377 
7   0.13347 
8   0.137081 
9   0.193199 
10   -0.410626 
11   -0.454644 
12   -0.284937 
13   -0.21652 
14   -0.226023 
15   -0.149573 
16   0.159709 
17   0.163065 
18   0.165364 
19   0.169989 
20   0.177441 
21   0.245873 
22   0.258525 
23   0.291988 
24   0.315804 
 
$$$$ 
 
