PCCDB-ID:  42731 
public computational chemistry database (PCCDB) project, http://pccdb.org 
 
 35 36  0  0  1  0  0  0  0  0999 V2000 
    3.8672   -3.1907    1.4031 C   0  0  0  0  0  0  0  0  0  0  0  0 
    4.1761   -1.3643    3.1192 C   0  0  0  0  0  0  0  0  0  0  0  0 
    5.4796    1.1048   -1.3556 C   0  0  0  0  0  0  0  0  0  0  0  0 
    6.0061    3.3291   -2.4395 C   0  0  0  0  0  0  0  0  0  0  0  0 
    4.6593    1.5144   -0.3751 C   0  0  0  0  0  0  0  0  0  0  0  0 
    6.5766    4.0940   -3.4672 C   0  0  0  0  0  0  0  0  0  0  0  0 
    4.3433   -0.8392    0.6194 C   0  0  0  0  0  0  0  0  0  0  0  0 
    6.7659    1.2563   -3.4647 C   0  0  0  0  0  0  0  0  0  0  0  0 
    8.3741    2.7801   -6.2974 C   0  0  0  0  0  0  0  0  0  0  0  0 
    3.6701   -1.6984    1.7078 C   0  0  0  0  0  0  0  0  0  0  0  0 
    6.0810    1.9256   -2.4192 C   0  0  0  0  0  0  0  0  0  0  0  0 
    4.0336    0.6618    0.7031 C   0  0  2  0  0  0  0  0  0  0  0  0 
    7.2296    3.4087   -4.4748 C   0  0  0  0  0  0  0  0  0  0  0  0 
    7.3214    2.0205   -4.4677 C   0  0  0  0  0  0  0  0  0  0  0  0 
    2.6158    0.9086    0.7337 O   0  0  0  0  0  0  0  0  0  0  0  0 
    7.8702    3.9140   -5.5793 O   0  0  0  0  0  0  0  0  0  0  0  0 
    8.0236    1.5962   -5.5715 O   0  0  0  0  0  0  0  0  0  0  0  0 
    3.3600   -3.8163    2.1471 H   0  0  0  0  0  0  0  0  0  0  0  0 
    4.9319   -3.4601    1.4156 H   0  0  0  0  0  0  0  0  0  0  0  0 
    3.4696   -3.4552    0.4157 H   0  0  0  0  0  0  0  0  0  0  0  0 
    3.6919   -2.0048    3.8658 H   0  0  0  0  0  0  0  0  0  0  0  0 
    3.9672   -0.3256    3.3965 H   0  0  0  0  0  0  0  0  0  0  0  0 
    5.2598   -1.5250    3.1988 H   0  0  0  0  0  0  0  0  0  0  0  0 
    5.7488    0.0507   -1.4012 H   0  0  0  0  0  0  0  0  0  0  0  0 
    5.5014    3.8481   -1.6313 H   0  0  0  0  0  0  0  0  0  0  0  0 
    4.3548    2.5592   -0.3167 H   0  0  0  0  0  0  0  0  0  0  0  0 
    6.5141    5.1768   -3.4716 H   0  0  0  0  0  0  0  0  0  0  0  0 
    4.0242   -1.2052   -0.3682 H   0  0  0  0  0  0  0  0  0  0  0  0 
    5.4328   -0.9812    0.6650 H   0  0  0  0  0  0  0  0  0  0  0  0 
    6.8478    0.1741   -3.4771 H   0  0  0  0  0  0  0  0  0  0  0  0 
    9.4655    2.8530   -6.3730 H   0  0  0  0  0  0  0  0  0  0  0  0 
    7.9167    2.7474   -7.2938 H   0  0  0  0  0  0  0  0  0  0  0  0 
    2.5951   -1.4790    1.6747 H   0  0  0  0  0  0  0  0  0  0  0  0 
    4.3761    1.0419    1.6744 H   0  0  0  0  0  0  0  0  0  0  0  0 
    2.2808    0.7085   -0.1562 H   0  0  0  0  0  0  0  0  0  0  0  0 
  1 19  1  0  0  0  0 
  1 10  1  0  0  0  0 
  1 18  1  0  0  0  0 
  2 23  1  0  0  0  0 
  2 22  1  0  0  0  0 
  2 21  1  0  0  0  0 
  3  5  2  0  0  0  0 
  4 11  1  0  0  0  0 
  4 25  1  0  0  0  0 
  5 26  1  0  0  0  0 
  5 12  1  0  0  0  0 
  6  4  2  0  0  0  0 
  7 29  1  0  0  0  0 
  7 12  1  0  0  0  0 
  7 10  1  0  0  0  0 
  8 11  2  0  0  0  0 
  9 16  1  0  0  0  0 
  9 17  1  0  0  0  0 
 10  2  1  0  0  0  0 
 11  3  1  0  0  0  0 
 12 15  1  0  0  0  0 
 12 34  1  1  0  0  0 
 13 14  2  0  0  0  0 
 13  6  1  0  0  0  0 
 14  8  1  0  0  0  0 
 16 13  1  0  0  0  0 
 17 14  1  0  0  0  0 
 20  1  1  0  0  0  0 
 24  3  1  0  0  0  0 
 27  6  1  0  0  0  0 
 28  7  1  0  0  0  0 
 30  8  1  0  0  0  0 
 31  9  1  0  0  0  0 
 32  9  1  0  0  0  0 
 33 10  1  0  0  0  0 
 35 15  1  0  0  0  0 
M  END 
>  <HBA> 
3 
 
>  <HBD> 
1 
 
>  <TPSA> 
38.69 
 
>  <cid> 
42731 
 
>  <dipole> 
2.02 
 
>  <excitation_energy_1> 
4.183 
 
>  <excitation_energy_2> 
4.49 
 
>  <excitation_energy_3> 
5.088 
 
>  <excitation_energy_4> 
5.277 
 
>  <homo_energy> 
-5.402 
 
>  <homo_lumo_gap> 
4.621 
 
>  <logP> 
2.836 
 
>  <lumo_energy> 
-0.781 
 
>  <melting_point> 
77.6 
 
>  <molecular_refractivity> 
67.79 
 
>  <oscillator_strength_1> 
0.3461 
 
>  <oscillator_strength_2> 
0.0088 
 
>  <oscillator_strength_3> 
0.0085 
 
>  <oscillator_strength_4> 
0.388 
 
>  <open_babel_can_smiles> 
CC(C[C@@H](/C=C/c1ccc2c(c1)OCO2)O)C 
 
>  <mulliken_charges> 
35 
1   -0.444094 
2   -0.451621 
3   -0.17025 
4   -0.19975 
5   -0.166018 
6   -0.182998 
7   -0.275943 
8   -0.255672 
9   0.194653 
10   -0.060779 
11   0.167007 
12   0.094607 
13   0.333602 
14   0.335176 
15   -0.620774 
16   -0.531342 
17   -0.535827 
18   0.140826 
19   0.136026 
20   0.136352 
21   0.140979 
22   0.152134 
23   0.134512 
24   0.129389 
25   0.133525 
26   0.134032 
27   0.146636 
28   0.120602 
29   0.13236 
30   0.142189 
31   0.161068 
32   0.160261 
33   0.139518 
34   0.146605 
35   0.383008 
 
>  <lowdin_charges> 
35 
1   -0.443757 
2   -0.445482 
3   -0.162273 
4   -0.163286 
5   -0.185429 
6   -0.177962 
7   -0.290226 
8   -0.186586 
9   0.022428 
10   -0.119577 
11   -0.007598 
12   0.000916 
13   0.071868 
14   0.072057 
15   -0.464276 
16   -0.20404 
17   -0.207036 
18   0.149514 
19   0.142181 
20   0.145016 
21   0.150567 
22   0.150451 
23   0.141103 
24   0.154127 
25   0.162761 
26   0.153727 
27   0.169035 
28   0.137415 
29   0.14317 
30   0.166676 
31   0.146293 
32   0.147117 
33   0.143358 
34   0.150045 
35   0.337704 
 
$$$$ 
 
