PCCDB-ID:  6873 
public computational chemistry database (PCCDB) project, http://pccdb.org 
 
 28 28  0  0  0  0  0  0  0  0999 V2000 
    7.0738    3.5204   -0.0014 C   0  0  0  0  0  0  0  0  0  0  0  0 
    5.0279    3.7132   -1.4960 C   0  0  0  0  0  0  0  0  0  0  0  0 
   -0.6049    3.9558    2.8734 C   0  0  0  0  0  0  0  0  0  0  0  0 
   -1.3745    3.6210    1.7567 C   0  0  0  0  0  0  0  0  0  0  0  0 
    0.7768    3.8308    2.8021 C   0  0  0  0  0  0  0  0  0  0  0  0 
   -0.7584    3.1729    0.5932 C   0  0  0  0  0  0  0  0  0  0  0  0 
    4.9127    2.4805    0.7170 C   0  0  0  0  0  0  0  0  0  0  0  0 
    5.5441    3.6450   -0.0524 C   0  0  0  0  0  0  0  0  0  0  0  0 
    1.4252    3.3676    1.6452 C   0  0  0  0  0  0  0  0  0  0  0  0 
    0.6364    3.0424    0.5193 C   0  0  0  0  0  0  0  0  0  0  0  0 
    2.9149    3.2856    1.7258 C   0  0  0  0  0  0  0  0  0  0  0  0 
    1.2275    2.6242   -0.6342 O   0  0  0  0  0  0  0  0  0  0  0  0 
    3.5571    3.7996    2.6248 O   0  0  0  0  0  0  0  0  0  0  0  0 
    3.4705    2.5668    0.7309 O   0  0  0  0  0  0  0  0  0  0  0  0 
    7.5489    4.3651   -0.5123 H   0  0  0  0  0  0  0  0  0  0  0  0 
    7.4123    2.6015   -0.4980 H   0  0  0  0  0  0  0  0  0  0  0  0 
    7.4431    3.5020    1.0307 H   0  0  0  0  0  0  0  0  0  0  0  0 
    5.4328    4.5905   -2.0138 H   0  0  0  0  0  0  0  0  0  0  0  0 
    3.9354    3.7686   -1.5236 H   0  0  0  0  0  0  0  0  0  0  0  0 
    5.3332    2.8226   -2.0618 H   0  0  0  0  0  0  0  0  0  0  0  0 
   -1.0770    4.3107    3.7842 H   0  0  0  0  0  0  0  0  0  0  0  0 
   -2.4571    3.7113    1.7863 H   0  0  0  0  0  0  0  0  0  0  0  0 
    1.4048    4.0901    3.6476 H   0  0  0  0  0  0  0  0  0  0  0  0 
   -1.3587    2.9203   -0.2796 H   0  0  0  0  0  0  0  0  0  0  0  0 
    5.2768    2.4481    1.7468 H   0  0  0  0  0  0  0  0  0  0  0  0 
    5.1235    1.5269    0.2225 H   0  0  0  0  0  0  0  0  0  0  0  0 
    5.2567    4.5668    0.4707 H   0  0  0  0  0  0  0  0  0  0  0  0 
    0.5328    2.4872   -1.2980 H   0  0  0  0  0  0  0  0  0  0  0  0 
  1 17  1  0  0  0  0 
  2  8  1  0  0  0  0 
  3 21  1  0  0  0  0 
  4 22  1  0  0  0  0 
  4  3  2  0  0  0  0 
  5  3  1  0  0  0  0 
  5 23  1  0  0  0  0 
  6  4  1  0  0  0  0 
  7 14  1  0  0  0  0 
  7 25  1  0  0  0  0 
  8  1  1  0  0  0  0 
  8 27  1  0  0  0  0 
  8  7  1  0  0  0  0 
  9 11  1  0  0  0  0 
  9  5  2  0  0  0  0 
 10  6  2  0  0  0  0 
 10  9  1  0  0  0  0 
 11 13  2  0  0  0  0 
 12 10  1  0  0  0  0 
 14 11  1  0  0  0  0 
 15  1  1  0  0  0  0 
 16  1  1  0  0  0  0 
 18  2  1  0  0  0  0 
 19  2  1  0  0  0  0 
 20  2  1  0  0  0  0 
 24  6  1  0  0  0  0 
 26  7  1  0  0  0  0 
 28 12  1  0  0  0  0 
M  END 
>  <HBA> 
3 
 
>  <HBD> 
1 
 
>  <TPSA> 
46.53 
 
>  <cid> 
6873 
 
>  <dipole> 
3.14 
 
>  <excitation_energy_1> 
4.534 
 
>  <excitation_energy_2> 
4.892 
 
>  <excitation_energy_3> 
5.396 
 
>  <excitation_energy_4> 
5.441 
 
>  <homo_energy> 
-6.275 
 
>  <homo_lumo_gap> 
5.249 
 
>  <logP> 
2.205 
 
>  <lumo_energy> 
-1.026 
 
>  <melting_point> 
68.24 
 
>  <molecular_refractivity> 
54.17 
 
>  <oscillator_strength_1> 
0.0803 
 
>  <oscillator_strength_2> 
0.0107 
 
>  <oscillator_strength_3> 
0.0036 
 
>  <oscillator_strength_4> 
0.1264 
 
>  <open_babel_can_smiles> 
CC(COC(=O)c1ccccc1O)C 
 
>  <mulliken_charges> 
28 
1   -0.451483 
2   -0.448431 
3   -0.139706 
4   -0.122734 
5   -0.167058 
6   -0.197433 
7   -0.038324 
8   -0.095788 
9   0.03241 
10   0.305752 
11   0.59745 
12   -0.618721 
13   -0.498958 
14   -0.462409 
15   0.148055 
16   0.13896 
17   0.148992 
18   0.138779 
19   0.167785 
20   0.133503 
21   0.134897 
22   0.137915 
23   0.167192 
24   0.121614 
25   0.166476 
26   0.142593 
27   0.149674 
28   0.408999 
 
>  <lowdin_charges> 
28 
1   -0.44459 
2   -0.448667 
3   -0.180131 
4   -0.127833 
5   -0.120128 
6   -0.216219 
7   -0.131712 
8   -0.132122 
9   -0.076336 
10   0.117218 
11   0.199992 
12   -0.35674 
13   -0.28406 
14   -0.174634 
15   0.15438 
16   0.145777 
17   0.150893 
18   0.14858 
19   0.158268 
20   0.143856 
21   0.162242 
22   0.160177 
23   0.180662 
24   0.155254 
25   0.157892 
26   0.148722 
27   0.150624 
28   0.358634 
 
$$$$ 
 
