PCCDB-ID:  41674 
public computational chemistry database (PCCDB) project, http://pccdb.org 
 
 30 29  0  0  1  0  0  0  0  0999 V2000 
    2.3015    3.9372    3.5233 C   0  0  0  0  0  0  0  0  0  0  0  0 
    7.9047    4.4628    3.5079 C   0  0  0  0  0  0  0  0  0  0  0  0 
    6.8800    0.9322   -1.1590 C   0  0  0  0  0  0  0  0  0  0  0  0 
    2.8977    2.8459    3.0448 C   0  0  0  0  0  0  0  0  0  0  0  0 
    3.2369    2.6381    1.5993 C   0  0  0  0  0  0  0  0  0  0  0  0 
    7.2716    3.8020    1.1591 C   0  0  0  0  0  0  0  0  0  0  0  0 
    5.0293    1.9996    0.1617 C   0  0  0  0  0  0  0  0  0  0  0  0 
    7.8113    3.3057    2.5061 C   0  0  2  0  0  0  0  0  0  0  0  0 
    6.5301    1.6961    0.1170 C   0  0  2  0  0  0  0  0  0  0  0  0 
    7.0396    2.2350    3.0514 O   0  0  0  0  0  0  0  0  0  0  0  0 
    4.6272    2.3428    1.4882 O   0  0  0  0  0  0  0  0  0  0  0  0 
    7.3430    2.8732    0.0829 O   0  0  0  0  0  0  0  0  0  0  0  0 
    2.0503    4.0364    4.5756 H   0  0  0  0  0  0  0  0  0  0  0  0 
    2.0354    4.7726    2.8788 H   0  0  0  0  0  0  0  0  0  0  0  0 
    8.5995    5.2408    3.1684 H   0  0  0  0  0  0  0  0  0  0  0  0 
    8.2529    4.0831    4.4730 H   0  0  0  0  0  0  0  0  0  0  0  0 
    6.9210    4.9243    3.6629 H   0  0  0  0  0  0  0  0  0  0  0  0 
    6.3890   -0.0466   -1.1777 H   0  0  0  0  0  0  0  0  0  0  0  0 
    7.9617    0.7814   -1.2091 H   0  0  0  0  0  0  0  0  0  0  0  0 
    6.5755    1.4972   -2.0477 H   0  0  0  0  0  0  0  0  0  0  0  0 
    3.1593    2.0238    3.7103 H   0  0  0  0  0  0  0  0  0  0  0  0 
    2.9840    3.5308    1.0058 H   0  0  0  0  0  0  0  0  0  0  0  0 
    2.6581    1.7928    1.1872 H   0  0  0  0  0  0  0  0  0  0  0  0 
    7.8849    4.6475    0.8277 H   0  0  0  0  0  0  0  0  0  0  0  0 
    6.2454    4.1732    1.2950 H   0  0  0  0  0  0  0  0  0  0  0  0 
    4.4615    1.1139   -0.1662 H   0  0  0  0  0  0  0  0  0  0  0  0 
    4.8010    2.8247   -0.5318 H   0  0  0  0  0  0  0  0  0  0  0  0 
    8.8141    2.8916    2.3387 H   0  0  0  0  0  0  0  0  0  0  0  0 
    6.7808    1.0911    0.9960 H   0  0  0  0  0  0  0  0  0  0  0  0 
    6.1069    2.3819    2.8097 H   0  0  0  0  0  0  0  0  0  0  0  0 
  1 13  1  0  0  0  0 
  2 17  1  0  0  0  0 
  2 16  1  0  0  0  0 
  3  9  1  0  0  0  0 
  4  1  2  0  0  0  0 
  4 21  1  0  0  0  0 
  5  4  1  0  0  0  0 
  6 25  1  0  0  0  0 
  6  8  1  0  0  0  0 
  7 11  1  0  0  0  0 
  8 28  1  6  0  0  0 
  8 10  1  0  0  0  0 
  8  2  1  0  0  0  0 
  9  7  1  0  0  0  0 
  9 29  1  1  0  0  0 
 11  5  1  0  0  0  0 
 12  9  1  0  0  0  0 
 12  6  1  0  0  0  0 
 14  1  1  0  0  0  0 
 15  2  1  0  0  0  0 
 18  3  1  0  0  0  0 
 19  3  1  0  0  0  0 
 20  3  1  0  0  0  0 
 22  5  1  0  0  0  0 
 23  5  1  0  0  0  0 
 24  6  1  0  0  0  0 
 26  7  1  0  0  0  0 
 27  7  1  0  0  0  0 
 30 10  1  0  0  0  0 
M  END 
>  <HBA> 
3 
 
>  <HBD> 
1 
 
>  <TPSA> 
38.69 
 
>  <cid> 
41674 
 
>  <dipole> 
2.92 
 
>  <excitation_energy_1> 
5.533 
 
>  <excitation_energy_2> 
6.09 
 
>  <excitation_energy_3> 
6.109 
 
>  <excitation_energy_4> 
6.337 
 
>  <homo_energy> 
-6.264 
 
>  <homo_lumo_gap> 
6.261 
 
>  <logP> 
0.975 
 
>  <lumo_energy> 
-0.003 
 
>  <melting_point> 
-48.43 
 
>  <molecular_refractivity> 
48.23 
 
>  <oscillator_strength_1> 
0.0005 
 
>  <oscillator_strength_2> 
0.0061 
 
>  <oscillator_strength_3> 
0.0177 
 
>  <oscillator_strength_4> 
0.0238 
 
>  <open_babel_can_smiles> 
C=CCOC[C@H](OC[C@H](O)C)C 
 
>  <mulliken_charges> 
30 
1   -0.331583 
2   -0.454382 
3   -0.461125 
4   -0.064959 
5   -0.054958 
6   -0.047712 
7   -0.028958 
8   0.132376 
9   0.121638 
10   -0.653941 
11   -0.499106 
12   -0.49644 
13   0.152029 
14   0.144411 
15   0.133625 
16   0.158708 
17   0.13791 
18   0.141303 
19   0.16583 
20   0.148724 
21   0.148382 
22   0.13434 
23   0.135733 
24   0.137693 
25   0.128051 
26   0.127454 
27   0.134717 
28   0.133227 
29   0.161501 
30   0.415513 
 
>  <lowdin_charges> 
30 
1   -0.319562 
2   -0.459871 
3   -0.445319 
4   -0.157039 
5   -0.125252 
6   -0.156397 
7   -0.148389 
8   -0.010613 
9   -0.00917 
10   -0.479624 
11   -0.279273 
12   -0.27653 
13   0.163612 
14   0.15902 
15   0.148053 
16   0.160106 
17   0.146063 
18   0.150899 
19   0.162519 
20   0.152685 
21   0.162544 
22   0.136801 
23   0.139061 
24   0.150197 
25   0.131527 
26   0.137634 
27   0.13746 
28   0.138957 
29   0.151842 
30   0.338059 
 
$$$$ 
 
