PCCDB-ID:  20049 
public computational chemistry database (PCCDB) project, http://pccdb.org 
 
 22 21  0  0  1  0  0  0  0  0999 V2000 
   -1.8742   -0.2661   -0.0586 C   0  0  0  0  0  0  0  0  0  0  0  0 
   -3.1375   -1.0624   -0.4376 C   0  0  0  0  0  0  0  0  0  0  0  0 
   -3.0272   -0.9361   -3.2606 C   0  0  0  0  0  0  0  0  0  0  0  0 
   -3.6281   -0.4634   -4.5891 C   0  0  1  0  0  0  0  0  0  0  0  0 
   -2.6656   -0.8062   -5.7544 C   0  0  0  0  0  0  0  0  0  0  0  0 
   -2.0702    1.1217    0.3421 N   0  0  0  0  0  0  0  0  0  0  0  0 
   -4.9718   -0.9717   -4.9135 N   0  0  0  0  0  0  0  0  0  0  0  0 
   -1.4622   -0.7621   -5.6499 O   0  0  0  0  0  0  0  0  0  0  0  0 
   -3.2998   -1.1198   -6.8915 O   0  0  0  0  0  0  0  0  0  0  0  0 
   -4.0806   -0.3772   -1.8613 S   0  0  0  0  0  0  0  0  0  0  0  0 
   -1.1660   -0.2806   -0.8959 H   0  0  0  0  0  0  0  0  0  0  0  0 
   -1.3816   -0.7957    0.7683 H   0  0  0  0  0  0  0  0  0  0  0  0 
   -3.8498   -1.0604    0.3959 H   0  0  0  0  0  0  0  0  0  0  0  0 
   -2.8940   -2.1102   -0.6543 H   0  0  0  0  0  0  0  0  0  0  0  0 
   -2.0153   -0.5355   -3.1731 H   0  0  0  0  0  0  0  0  0  0  0  0 
   -2.9605   -2.0316   -3.2479 H   0  0  0  0  0  0  0  0  0  0  0  0 
   -3.6934    0.6326   -4.5746 H   0  0  0  0  0  0  0  0  0  0  0  0 
   -2.5396    1.6258   -0.4095 H   0  0  0  0  0  0  0  0  0  0  0  0 
   -2.6930    1.1677    1.1482 H   0  0  0  0  0  0  0  0  0  0  0  0 
   -5.0905   -1.9185   -4.5539 H   0  0  0  0  0  0  0  0  0  0  0  0 
   -5.6942   -0.4051   -4.4761 H   0  0  0  0  0  0  0  0  0  0  0  0 
   -4.2627   -1.1079   -6.6559 H   0  0  0  0  0  0  0  0  0  0  0  0 
  1  6  1  0  0  0  0 
  1 12  1  0  0  0  0 
  2  1  1  0  0  0  0 
  2 13  1  0  0  0  0 
  3 16  1  0  0  0  0 
  3 15  1  0  0  0  0 
  3 10  1  0  0  0  0 
  4 17  1  1  0  0  0 
  4  3  1  0  0  0  0 
  5  8  2  0  0  0  0 
  5  4  1  0  0  0  0 
  6 19  1  0  0  0  0 
  7  4  1  0  0  0  0 
  7 20  1  0  0  0  0 
  7 21  1  0  0  0  0 
  9 22  1  0  0  0  0 
  9  5  1  0  0  0  0 
 10  2  1  0  0  0  0 
 11  1  1  0  0  0  0 
 14  2  1  0  0  0  0 
 18  6  1  0  0  0  0 
M  END 
>  <HBA> 
5 
 
>  <HBD> 
3 
 
>  <TPSA> 
114.64 
 
>  <cid> 
20049 
 
>  <dipole> 
5.14 
 
>  <excitation_energy_1> 
5.059 
 
>  <excitation_energy_2> 
5.451 
 
>  <excitation_energy_3> 
5.492 
 
>  <excitation_energy_4> 
5.698 
 
>  <homo_energy> 
-6.37 
 
>  <homo_lumo_gap> 
6.457 
 
>  <logP> 
0.491 
 
>  <lumo_energy> 
0.087 
 
>  <melting_point> 
168.73 
 
>  <molecular_refractivity> 
40.93 
 
>  <oscillator_strength_1> 
0.0051 
 
>  <oscillator_strength_2> 
0.0012 
 
>  <oscillator_strength_3> 
0.0055 
 
>  <oscillator_strength_4> 
0.0013 
 
>  <open_babel_can_smiles> 
N[C@H](C(=O)O)CSCCN 
 
>  <mulliken_charges> 
22 
1   -0.140082 
2   -0.418724 
3   -0.413536 
4   -0.103817 
5   0.612719 
6   -0.701099 
7   -0.764288 
8   -0.461464 
9   -0.577693 
10   0.044457 
11   0.157953 
12   0.151722 
13   0.169736 
14   0.166224 
15   0.211557 
16   0.167667 
17   0.193633 
18   0.313479 
19   0.291272 
20   0.327376 
21   0.338628 
22   0.434282 
 
>  <lowdin_charges> 
22 
1   -0.214357 
2   -0.391584 
3   -0.378871 
4   -0.108697 
5   0.170521 
6   -0.549366 
7   -0.540954 
8   -0.253609 
9   -0.347259 
10   0.057159 
11   0.149794 
12   0.151598 
13   0.165467 
14   0.157985 
15   0.179499 
16   0.153827 
17   0.17271 
18   0.262074 
19   0.252468 
20   0.271007 
21   0.281107 
22   0.359482 
 
$$$$ 
 
