PCCDB-ID:  31666 
public computational chemistry database (PCCDB) project, http://pccdb.org 
 
 30 32  0  0  1  0  0  0  0  0999 V2000 
    2.5404    0.1721    0.1180 C   0  0  0  0  0  0  0  0  0  0  0  0 
    2.2513    1.5243    0.2928 C   0  0  0  0  0  0  0  0  0  0  0  0 
    1.5108   -0.7578   -0.0391 C   0  0  0  0  0  0  0  0  0  0  0  0 
    0.9227    1.9481    0.2900 C   0  0  0  0  0  0  0  0  0  0  0  0 
   -0.0291   -3.1359    1.4255 C   0  0  0  0  0  0  0  0  0  0  0  0 
    0.8543   -4.3126    0.9256 C   0  0  0  0  0  0  0  0  0  0  0  0 
   -0.2215   -3.5568   -0.9959 C   0  0  0  0  0  0  0  0  0  0  0  0 
   -2.2586    0.7188   -0.6924 C   0  0  0  0  0  0  0  0  0  0  0  0 
   -0.8244   -2.7046    0.1598 C   0  0  2  0  0  0  0  0  0  0  0  0 
    0.1693   -0.3535   -0.0151 C   0  0  0  0  0  0  0  0  0  0  0  0 
   -0.1034    1.0213    0.1351 C   0  0  0  0  0  0  0  0  0  0  0  0 
   -2.1787   -0.7805   -0.4452 C   0  0  0  0  0  0  0  0  0  0  0  0 
    0.3031   -4.7707   -0.3638 N   0  0  0  0  0  0  0  0  0  0  0  0 
   -0.9273   -1.2553   -0.0951 N   0  0  0  0  0  0  0  0  0  0  0  0 
   -3.1643   -1.4924   -0.5818 O   0  0  0  0  0  0  0  0  0  0  0  0 
   -1.3994    1.4681    0.1604 O   0  0  0  0  0  0  0  0  0  0  0  0 
    3.5703   -0.1721    0.1026 H   0  0  0  0  0  0  0  0  0  0  0  0 
    3.0508    2.2488    0.4150 H   0  0  0  0  0  0  0  0  0  0  0  0 
    1.7623   -1.8015   -0.1730 H   0  0  0  0  0  0  0  0  0  0  0  0 
    0.6546    2.9933    0.4077 H   0  0  0  0  0  0  0  0  0  0  0  0 
    0.5643   -2.3223    1.8504 H   0  0  0  0  0  0  0  0  0  0  0  0 
   -0.7252   -3.4644    2.2038 H   0  0  0  0  0  0  0  0  0  0  0  0 
    0.9061   -5.1450    1.6330 H   0  0  0  0  0  0  0  0  0  0  0  0 
    1.8840   -3.9706    0.7565 H   0  0  0  0  0  0  0  0  0  0  0  0 
    0.5964   -3.0261   -1.4973 H   0  0  0  0  0  0  0  0  0  0  0  0 
   -0.9670   -3.8011   -1.7579 H   0  0  0  0  0  0  0  0  0  0  0  0 
   -3.2790    1.0422   -0.4878 H   0  0  0  0  0  0  0  0  0  0  0  0 
   -2.0236    0.9266   -1.7487 H   0  0  0  0  0  0  0  0  0  0  0  0 
   -1.8640   -3.0107    0.2747 H   0  0  0  0  0  0  0  0  0  0  0  0 
   -0.4768   -5.4007   -0.1776 H   0  0  0  0  0  0  0  0  0  0  0  0 
  1  2  2  0  0  0  0 
  2 18  1  0  0  0  0 
  3 10  2  0  0  0  0 
  3  1  1  0  0  0  0 
  4  2  1  0  0  0  0 
  4 20  1  0  0  0  0 
  5 21  1  0  0  0  0 
  5 22  1  0  0  0  0 
  6  5  1  0  0  0  0 
  6 23  1  0  0  0  0 
  7 13  1  0  0  0  0 
  7  9  1  0  0  0  0 
  8 27  1  0  0  0  0 
  8 12  1  0  0  0  0 
  8 16  1  0  0  0  0 
  9 29  1  1  0  0  0 
  9  5  1  0  0  0  0 
 10 11  1  0  0  0  0 
 11 16  1  0  0  0  0 
 11  4  2  0  0  0  0 
 12 14  1  0  0  0  0 
 13 30  1  0  0  0  0 
 13  6  1  0  0  0  0 
 14 10  1  0  0  0  0 
 14  9  1  0  0  0  0 
 15 12  2  0  0  0  0 
 17  1  1  0  0  0  0 
 19  3  1  0  0  0  0 
 24  6  1  0  0  0  0 
 25  7  1  0  0  0  0 
 26  7  1  0  0  0  0 
 28  8  1  0  0  0  0 
M  END 
>  <HBA> 
4 
 
>  <HBD> 
1 
 
>  <TPSA> 
41.57 
 
>  <cid> 
31666 
 
>  <dipole> 
1.77 
 
>  <excitation_energy_1> 
4.603 
 
>  <excitation_energy_2> 
4.843 
 
>  <excitation_energy_3> 
5.121 
 
>  <excitation_energy_4> 
5.225 
 
>  <homo_energy> 
-5.788 
 
>  <homo_lumo_gap> 
5.309 
 
>  <logP> 
1.168 
 
>  <lumo_energy> 
-0.479 
 
>  <melting_point> 
110.5 
 
>  <molecular_refractivity> 
67.19 
 
>  <oscillator_strength_1> 
0.104 
 
>  <oscillator_strength_2> 
0.0275 
 
>  <oscillator_strength_3> 
0.0194 
 
>  <oscillator_strength_4> 
0.0073 
 
>  <open_babel_can_smiles> 
O=C1COc2c(N1[C@H]1CNCC1)cccc2 
 
>  <mulliken_charges> 
30 
1   -0.142977 
2   -0.136476 
3   -0.1927 
4   -0.184814 
5   -0.312733 
6   -0.163976 
7   -0.174705 
8   -0.13741 
9   0.000955 
10   0.317106 
11   0.321822 
12   0.572541 
13   -0.524269 
14   -0.556419 
15   -0.505167 
16   -0.51542 
17   0.133008 
18   0.134332 
19   0.146409 
20   0.145147 
21   0.164366 
22   0.150844 
23   0.146808 
24   0.152602 
25   0.156521 
26   0.159588 
27   0.192189 
28   0.168245 
29   0.187387 
30   0.297197 
 
>  <lowdin_charges> 
30 
1   -0.163295 
2   -0.159732 
3   -0.182165 
4   -0.172454 
5   -0.315467 
6   -0.213704 
7   -0.226705 
8   -0.147086 
9   -0.079967 
10   0.01835 
11   0.078336 
12   0.147893 
13   -0.354976 
14   -0.070336 
15   -0.291779 
16   -0.202104 
17   0.16007 
18   0.162641 
19   0.165376 
20   0.169474 
21   0.161465 
22   0.153476 
23   0.151277 
24   0.141088 
25   0.147321 
26   0.15772 
27   0.179346 
28   0.15586 
29   0.175592 
30   0.254484 
 
$$$$ 
 
