PCCDB-ID:  26636 
public computational chemistry database (PCCDB) project, http://pccdb.org 
 
 29 28  0  0  1  0  0  0  0  0999 V2000 
    1.4690   -2.9169    3.2284 C   0  0  0  0  0  0  0  0  0  0  0  0 
    6.6418    2.6058    1.7523 C   0  0  0  0  0  0  0  0  0  0  0  0 
    6.0437   -1.7555    3.8338 C   0  0  0  0  0  0  0  0  0  0  0  0 
    2.8046   -2.5823    2.5560 C   0  0  0  0  0  0  0  0  0  0  0  0 
    6.1784    1.1755    1.4650 C   0  0  0  0  0  0  0  0  0  0  0  0 
    3.2490   -1.1347    2.8054 C   0  0  0  0  0  0  0  0  0  0  0  0 
    3.7863    1.6122    1.9139 C   0  0  0  0  0  0  0  0  0  0  0  0 
    4.9253    0.7532    2.2710 C   0  0  1  0  0  0  0  0  0  0  0  0 
    4.5601   -0.7559    2.0809 C   0  0  1  0  0  0  0  0  0  0  0  0 
    2.9027    2.3012    1.6071 N   0  0  0  0  0  0  0  0  0  0  0  0 
    5.7311   -1.5782    2.4174 N   0  0  0  0  0  0  0  0  0  0  0  0 
    1.1755   -3.9553    3.0377 H   0  0  0  0  0  0  0  0  0  0  0  0 
    0.6664   -2.2685    2.8575 H   0  0  0  0  0  0  0  0  0  0  0  0 
    1.5281   -2.7811    4.3152 H   0  0  0  0  0  0  0  0  0  0  0  0 
    5.8687    3.3401    1.5004 H   0  0  0  0  0  0  0  0  0  0  0  0 
    7.5352    2.8455    1.1654 H   0  0  0  0  0  0  0  0  0  0  0  0 
    6.8964    2.7372    2.8115 H   0  0  0  0  0  0  0  0  0  0  0  0 
    6.9290   -2.3943    3.9146 H   0  0  0  0  0  0  0  0  0  0  0  0 
    5.2425   -2.2065    4.4428 H   0  0  0  0  0  0  0  0  0  0  0  0 
    6.3015   -0.7914    4.2862 H   0  0  0  0  0  0  0  0  0  0  0  0 
    2.7199   -2.7520    1.4727 H   0  0  0  0  0  0  0  0  0  0  0  0 
    3.5743   -3.2787    2.9158 H   0  0  0  0  0  0  0  0  0  0  0  0 
    6.9650    0.4547    1.7038 H   0  0  0  0  0  0  0  0  0  0  0  0 
    5.9593    1.0597    0.3956 H   0  0  0  0  0  0  0  0  0  0  0  0 
    3.3574   -0.9637    3.8859 H   0  0  0  0  0  0  0  0  0  0  0  0 
    2.4542   -0.4569    2.4710 H   0  0  0  0  0  0  0  0  0  0  0  0 
    5.1243    0.9279    3.3386 H   0  0  0  0  0  0  0  0  0  0  0  0 
    4.4008   -0.9031    1.0037 H   0  0  0  0  0  0  0  0  0  0  0  0 
    5.6349   -2.4870    1.9741 H   0  0  0  0  0  0  0  0  0  0  0  0 
  1 14  1  0  0  0  0 
  2 17  1  0  0  0  0 
  3 18  1  0  0  0  0 
  3 20  1  0  0  0  0 
  3 19  1  0  0  0  0 
  4  6  1  0  0  0  0 
  4 22  1  0  0  0  0 
  4  1  1  0  0  0  0 
  5 23  1  0  0  0  0 
  5  2  1  0  0  0  0 
  5  8  1  0  0  0  0 
  6 25  1  0  0  0  0 
  7  8  1  0  0  0  0 
  8 27  1  1  0  0  0 
  9 28  1  6  0  0  0 
  9  8  1  0  0  0  0 
  9 11  1  0  0  0  0 
  9  6  1  0  0  0  0 
 10  7  3  0  0  0  0 
 11  3  1  0  0  0  0 
 12  1  1  0  0  0  0 
 13  1  1  0  0  0  0 
 15  2  1  0  0  0  0 
 16  2  1  0  0  0  0 
 21  4  1  0  0  0  0 
 24  5  1  0  0  0  0 
 26  6  1  0  0  0  0 
 29 11  1  0  0  0  0 
M  END 
>  <HBA> 
2 
 
>  <HBD> 
1 
 
>  <TPSA> 
35.82 
 
>  <cid> 
26636 
 
>  <dipole> 
4.2 
 
>  <excitation_energy_1> 
5.354 
 
>  <excitation_energy_2> 
5.666 
 
>  <excitation_energy_3> 
6.05 
 
>  <excitation_energy_4> 
6.266 
 
>  <homo_energy> 
-6.242 
 
>  <homo_lumo_gap> 
7.266 
 
>  <logP> 
2.315 
 
>  <lumo_energy> 
1.023 
 
>  <melting_point> 
32.53 
 
>  <molecular_refractivity> 
47.93 
 
>  <oscillator_strength_1> 
0.0045 
 
>  <oscillator_strength_2> 
0.0124 
 
>  <oscillator_strength_3> 
0.0103 
 
>  <oscillator_strength_4> 
0.0076 
 
>  <open_babel_can_smiles> 
CCC[C@@H]([C@H](C#N)CC)NC 
 
>  <mulliken_charges> 
29 
1   -0.442393 
2   -0.457952 
3   -0.315571 
4   -0.259987 
5   -0.252335 
6   -0.273603 
7   0.360734 
8   -0.165311 
9   0.025453 
10   -0.50036 
11   -0.549672 
12   0.144262 
13   0.151081 
14   0.143841 
15   0.168058 
16   0.150236 
17   0.141397 
18   0.155868 
19   0.135215 
20   0.153244 
21   0.133378 
22   0.127477 
23   0.174407 
24   0.144088 
25   0.132299 
26   0.162524 
27   0.169805 
28   0.137714 
29   0.306103 
 
>  <lowdin_charges> 
29 
1   -0.440602 
2   -0.448322 
3   -0.36655 
4   -0.274597 
5   -0.266213 
6   -0.297847 
7   -0.01393 
8   -0.134632 
9   -0.05788 
10   -0.142211 
11   -0.359857 
12   0.149644 
13   0.152048 
14   0.145952 
15   0.159801 
16   0.155525 
17   0.14546 
18   0.15621 
19   0.129595 
20   0.147593 
21   0.138162 
22   0.137212 
23   0.164826 
24   0.147525 
25   0.140085 
26   0.16189 
27   0.165724 
28   0.144829 
29   0.260561 
 
$$$$ 
 
