PCCDB-ID:  17942 
public computational chemistry database (PCCDB) project, http://pccdb.org 
 
 29 28  0  0  0  0  0  0  0  0999 V2000 
    2.3649   -2.6648    0.9467 C   0  0  0  0  0  0  0  0  0  0  0  0 
    9.7760   -1.8454   -1.2082 C   0  0  0  0  0  0  0  0  0  0  0  0 
   10.2566   -2.6235   -3.5915 C   0  0  0  0  0  0  0  0  0  0  0  0 
    2.8076   -1.5321    0.0148 C   0  0  0  0  0  0  0  0  0  0  0  0 
    3.9577   -1.9321   -0.9176 C   0  0  0  0  0  0  0  0  0  0  0  0 
    4.3936   -0.8000   -1.8576 C   0  0  0  0  0  0  0  0  0  0  0  0 
    5.5319   -1.1876   -2.8054 C   0  0  0  0  0  0  0  0  0  0  0  0 
    7.9826   -1.8427   -2.9908 C   0  0  0  0  0  0  0  0  0  0  0  0 
    9.2546   -2.0870   -2.6034 C   0  0  0  0  0  0  0  0  0  0  0  0 
    6.9007   -1.3167   -2.1325 C   0  0  0  0  0  0  0  0  0  0  0  0 
    7.0701   -0.9780   -0.9648 O   0  0  0  0  0  0  0  0  0  0  0  0 
    1.5458   -2.3480    1.6027 H   0  0  0  0  0  0  0  0  0  0  0  0 
    3.1928   -2.9981    1.5846 H   0  0  0  0  0  0  0  0  0  0  0  0 
    2.0168   -3.5352    0.3764 H   0  0  0  0  0  0  0  0  0  0  0  0 
   10.7606   -2.3054   -1.0733 H   0  0  0  0  0  0  0  0  0  0  0  0 
    9.0857   -2.2205   -0.4493 H   0  0  0  0  0  0  0  0  0  0  0  0 
    9.8704   -0.7700   -1.0136 H   0  0  0  0  0  0  0  0  0  0  0  0 
   11.1235   -1.9521   -3.6627 H   0  0  0  0  0  0  0  0  0  0  0  0 
    9.8325   -2.7484   -4.5921 H   0  0  0  0  0  0  0  0  0  0  0  0 
   10.6460   -3.5944   -3.2553 H   0  0  0  0  0  0  0  0  0  0  0  0 
    3.1163   -0.6650    0.6154 H   0  0  0  0  0  0  0  0  0  0  0  0 
    1.9502   -1.1970   -0.5868 H   0  0  0  0  0  0  0  0  0  0  0  0 
    3.6515   -2.8045   -1.5156 H   0  0  0  0  0  0  0  0  0  0  0  0 
    4.8184   -2.2497   -0.3161 H   0  0  0  0  0  0  0  0  0  0  0  0 
    4.7124    0.0629   -1.2607 H   0  0  0  0  0  0  0  0  0  0  0  0 
    3.5321   -0.4739   -2.4563 H   0  0  0  0  0  0  0  0  0  0  0  0 
    5.6422   -0.4360   -3.6030 H   0  0  0  0  0  0  0  0  0  0  0  0 
    5.3067   -2.1288   -3.3290 H   0  0  0  0  0  0  0  0  0  0  0  0 
    7.7086   -2.0536   -4.0236 H   0  0  0  0  0  0  0  0  0  0  0  0 
  1 13  1  0  0  0  0 
  1 12  1  0  0  0  0 
  2 15  1  0  0  0  0 
  2 17  1  0  0  0  0 
  2 16  1  0  0  0  0 
  3 20  1  0  0  0  0 
  3  9  1  0  0  0  0 
  4 21  1  0  0  0  0 
  4  1  1  0  0  0  0 
  5 24  1  0  0  0  0 
  5  4  1  0  0  0  0 
  6 25  1  0  0  0  0 
  6  5  1  0  0  0  0 
  7 10  1  0  0  0  0 
  7  6  1  0  0  0  0 
  8  9  2  0  0  0  0 
  8 10  1  0  0  0  0 
  9  2  1  0  0  0  0 
 10 11  2  0  0  0  0 
 14  1  1  0  0  0  0 
 18  3  1  0  0  0  0 
 19  3  1  0  0  0  0 
 22  4  1  0  0  0  0 
 23  5  1  0  0  0  0 
 26  6  1  0  0  0  0 
 27  7  1  0  0  0  0 
 28  7  1  0  0  0  0 
 29  8  1  0  0  0  0 
M  END 
>  <HBA> 
1 
 
>  <HBD> 
0 
 
>  <TPSA> 
17.07 
 
>  <cid> 
17942 
 
>  <dipole> 
2.63 
 
>  <excitation_energy_1> 
3.683 
 
>  <excitation_energy_2> 
5.473 
 
>  <excitation_energy_3> 
5.905 
 
>  <excitation_energy_4> 
6.282 
 
>  <homo_energy> 
-6.362 
 
>  <homo_lumo_gap> 
5.214 
 
>  <logP> 
3.102 
 
>  <lumo_energy> 
-1.148 
 
>  <melting_point> 
5.38 
 
>  <molecular_refractivity> 
49.91 
 
>  <oscillator_strength_1> 
0.0002 
 
>  <oscillator_strength_2> 
0.4315 
 
>  <oscillator_strength_3> 
0.0139 
 
>  <oscillator_strength_4> 
0.0017 
 
>  <open_babel_can_smiles> 
CCCCCC(=O)C=C(C)C 
 
>  <mulliken_charges> 
29 
1   -0.441545 
2   -0.500728 
3   -0.518046 
4   -0.246928 
5   -0.250186 
6   -0.246998 
7   -0.368634 
8   -0.230747 
9   0.200413 
10   0.445268 
11   -0.489856 
12   0.139221 
13   0.143228 
14   0.137984 
15   0.138755 
16   0.191695 
17   0.179725 
18   0.166312 
19   0.158716 
20   0.166006 
21   0.134692 
22   0.125081 
23   0.116551 
24   0.15122 
25   0.150926 
26   0.122589 
27   0.157799 
28   0.150792 
29   0.116694 
 
>  <lowdin_charges> 
29 
1   -0.446455 
2   -0.4461 
3   -0.43993 
4   -0.272823 
5   -0.278947 
6   -0.274913 
7   -0.309389 
8   -0.243396 
9   0.064143 
10   0.153836 
11   -0.262363 
12   0.148657 
13   0.147994 
14   0.145025 
15   0.148137 
16   0.181951 
17   0.174776 
18   0.164256 
19   0.156813 
20   0.163789 
21   0.141751 
22   0.136628 
23   0.132328 
24   0.150166 
25   0.15337 
26   0.140446 
27   0.163122 
28   0.15536 
29   0.151769 
 
$$$$ 
 
