PCCDB-ID:  46829 
public computational chemistry database (PCCDB) project, http://pccdb.org 
 
 30 31  0  0  1  0  0  0  0  0999 V2000 
    1.7343    1.4236   -0.4845 C   0  0  0  0  0  0  0  0  0  0  0  0 
    4.8617    0.8473   -1.7832 C   0  0  0  0  0  0  0  0  0  0  0  0 
    2.5252    0.2551    0.1182 C   0  0  0  0  0  0  0  0  0  0  0  0 
    5.0996   -3.2945   -1.1622 C   0  0  0  0  0  0  0  0  0  0  0  0 
    3.6063   -3.1456   -1.5849 C   0  0  0  0  0  0  0  0  0  0  0  0 
    3.8353   -2.4885    0.7179 C   0  0  0  0  0  0  0  0  0  0  0  0 
    5.5193   -0.9445   -0.2841 C   0  0  0  0  0  0  0  0  0  0  0  0 
    5.2420   -2.4077    0.1000 C   0  0  2  0  0  0  0  0  0  0  0  0 
    2.9797   -2.1970   -0.5307 C   0  0  1  0  0  0  0  0  0  0  0  0 
    3.1414   -0.7124   -0.9396 C   0  0  2  0  0  0  0  0  0  0  0  0 
    4.5573   -0.4773   -1.2789 N   0  0  0  0  0  0  0  0  0  0  0  0 
    1.2985    2.0528    0.3006 H   0  0  0  0  0  0  0  0  0  0  0  0 
    0.9101    1.0571   -1.1092 H   0  0  0  0  0  0  0  0  0  0  0  0 
    2.3614    2.0654   -1.1125 H   0  0  0  0  0  0  0  0  0  0  0  0 
    5.8795    0.8546   -2.1927 H   0  0  0  0  0  0  0  0  0  0  0  0 
    4.8072    1.6509   -1.0234 H   0  0  0  0  0  0  0  0  0  0  0  0 
    4.1697    1.1026   -2.5943 H   0  0  0  0  0  0  0  0  0  0  0  0 
    1.8531   -0.3110    0.7765 H   0  0  0  0  0  0  0  0  0  0  0  0 
    3.3188    0.6453    0.7687 H   0  0  0  0  0  0  0  0  0  0  0  0 
    5.7846   -2.9817   -1.9565 H   0  0  0  0  0  0  0  0  0  0  0  0 
    5.3347   -4.3369   -0.9169 H   0  0  0  0  0  0  0  0  0  0  0  0 
    3.0966   -4.1163   -1.5641 H   0  0  0  0  0  0  0  0  0  0  0  0 
    3.5058   -2.7430   -2.5975 H   0  0  0  0  0  0  0  0  0  0  0  0 
    3.6811   -1.7795    1.5393 H   0  0  0  0  0  0  0  0  0  0  0  0 
    3.6299   -3.4957    1.1034 H   0  0  0  0  0  0  0  0  0  0  0  0 
    6.5197   -0.8584   -0.7300 H   0  0  0  0  0  0  0  0  0  0  0  0 
    5.5315   -0.3201    0.6342 H   0  0  0  0  0  0  0  0  0  0  0  0 
    6.0312   -2.7570    0.7759 H   0  0  0  0  0  0  0  0  0  0  0  0 
    1.9138   -2.3990   -0.3741 H   0  0  0  0  0  0  0  0  0  0  0  0 
    2.5861   -0.5708   -1.8797 H   0  0  0  0  0  0  0  0  0  0  0  0 
  1  3  1  0  0  0  0 
  1 12  1  0  0  0  0 
  2 11  1  0  0  0  0 
  2 16  1  0  0  0  0 
  3 19  1  0  0  0  0 
  3 18  1  0  0  0  0 
  4 21  1  0  0  0  0 
  4  8  1  0  0  0  0 
  5 22  1  0  0  0  0 
  5  4  1  0  0  0  0 
  5  9  1  0  0  0  0 
  6 25  1  0  0  0  0 
  6 24  1  0  0  0  0 
  7  8  1  0  0  0  0 
  7 27  1  0  0  0  0 
  8  6  1  0  0  0  0 
  8 28  1  1  0  0  0 
  9 29  1  1  0  0  0 
  9  6  1  0  0  0  0 
 10 30  1  6  0  0  0 
 10  9  1  0  0  0  0 
 10  3  1  0  0  0  0 
 11 10  1  0  0  0  0 
 11  7  1  0  0  0  0 
 13  1  1  0  0  0  0 
 14  1  1  0  0  0  0 
 15  2  1  0  0  0  0 
 17  2  1  0  0  0  0 
 20  4  1  0  0  0  0 
 23  5  1  0  0  0  0 
 26  7  1  0  0  0  0 
M  END 
>  <HBA> 
1 
 
>  <HBD> 
0 
 
>  <TPSA> 
3.24 
 
>  <cid> 
46829 
 
>  <dipole> 
0.48 
 
>  <excitation_energy_1> 
4.853 
 
>  <excitation_energy_2> 
5.232 
 
>  <excitation_energy_3> 
5.336 
 
>  <excitation_energy_4> 
5.361 
 
>  <homo_energy> 
-5.358 
 
>  <homo_lumo_gap> 
7.459 
 
>  <logP> 
2.065 
 
>  <lumo_energy> 
2.101 
 
>  <melting_point> 
18.57 
 
>  <molecular_refractivity> 
52.77 
 
>  <oscillator_strength_1> 
0.0084 
 
>  <oscillator_strength_2> 
0.0099 
 
>  <oscillator_strength_3> 
0.0061 
 
>  <oscillator_strength_4> 
0.0123 
 
>  <open_babel_can_smiles> 
CC[C@@H]1[C@H]2CC[C@H](C2)CN1C 
 
>  <mulliken_charges> 
30 
1   -0.455459 
2   -0.293478 
3   -0.273391 
4   -0.25771 
5   -0.25926 
6   -0.275688 
7   -0.113091 
8   -0.107533 
9   -0.124204 
10   0.060691 
11   -0.395108 
12   0.14095 
13   0.142104 
14   0.148225 
15   0.143255 
16   0.11991 
17   0.144675 
18   0.135912 
19   0.139414 
20   0.137367 
21   0.12612 
22   0.125649 
23   0.138813 
24   0.133784 
25   0.129725 
26   0.131341 
27   0.104236 
28   0.11582 
29   0.115649 
30   0.121283 
 
>  <lowdin_charges> 
30 
1   -0.450585 
2   -0.355008 
3   -0.297159 
4   -0.282842 
5   -0.282171 
6   -0.286766 
7   -0.199695 
8   -0.138202 
9   -0.136039 
10   -0.063776 
11   -0.187733 
12   0.149714 
13   0.146398 
14   0.149875 
15   0.145922 
16   0.120566 
17   0.148258 
18   0.145845 
19   0.144854 
20   0.148314 
21   0.138805 
22   0.139776 
23   0.147584 
24   0.143564 
25   0.141486 
26   0.140212 
27   0.112903 
28   0.141855 
29   0.137969 
30   0.136078 
 
$$$$ 
 
