PCCDB-ID:  28201 
public computational chemistry database (PCCDB) project, http://pccdb.org 
 
 37 37  0  0  0  0  0  0  0  0999 V2000 
    4.4080    3.0259   -3.9078 C   0  0  0  0  0  0  0  0  0  0  0  0 
    4.4489    4.2884    5.4114 C   0  0  0  0  0  0  0  0  0  0  0  0 
    4.1863    2.7257   -2.4221 C   0  0  0  0  0  0  0  0  0  0  0  0 
    5.8565    3.8743    4.9658 C   0  0  0  0  0  0  0  0  0  0  0  0 
    5.1053    3.5438   -1.5043 C   0  0  0  0  0  0  0  0  0  0  0  0 
    6.2326    4.3190    3.5414 C   0  0  0  0  0  0  0  0  0  0  0  0 
    4.8680    3.2416   -0.0191 C   0  0  0  0  0  0  0  0  0  0  0  0 
    5.4092    3.6254    2.4468 C   0  0  0  0  0  0  0  0  0  0  0  0 
    5.5036    5.5273    0.8072 C   0  0  0  0  0  0  0  0  0  0  0  0 
    7.2355    3.8173    0.6924 C   0  0  0  0  0  0  0  0  0  0  0  0 
    7.7017    6.0513    0.2539 C   0  0  0  0  0  0  0  0  0  0  0  0 
    5.7564    4.0467    0.9825 C   0  0  0  0  0  0  0  0  0  0  0  0 
    6.3468    6.4282    0.4839 N   0  0  0  0  0  0  0  0  0  0  0  0 
    8.0997    4.6973    0.3705 N   0  0  0  0  0  0  0  0  0  0  0  0 
    4.2206    5.8716    1.0307 O   0  0  0  0  0  0  0  0  0  0  0  0 
    7.6742    2.5426    0.7864 O   0  0  0  0  0  0  0  0  0  0  0  0 
    8.5113    6.9000   -0.0431 O   0  0  0  0  0  0  0  0  0  0  0  0 
    4.2210    4.0832   -4.1304 H   0  0  0  0  0  0  0  0  0  0  0  0 
    3.7389    2.4288   -4.5371 H   0  0  0  0  0  0  0  0  0  0  0  0 
    5.4384    2.8015   -4.2083 H   0  0  0  0  0  0  0  0  0  0  0  0 
    4.2674    3.9965    6.4516 H   0  0  0  0  0  0  0  0  0  0  0  0 
    3.6673    3.8219    4.8008 H   0  0  0  0  0  0  0  0  0  0  0  0 
    4.3185    5.3753    5.3427 H   0  0  0  0  0  0  0  0  0  0  0  0 
    4.3478    1.6543   -2.2361 H   0  0  0  0  0  0  0  0  0  0  0  0 
    3.1383    2.9267   -2.1586 H   0  0  0  0  0  0  0  0  0  0  0  0 
    5.9630    2.7828    5.0460 H   0  0  0  0  0  0  0  0  0  0  0  0 
    6.5906    4.3009    5.6608 H   0  0  0  0  0  0  0  0  0  0  0  0 
    4.9443    4.6138   -1.6932 H   0  0  0  0  0  0  0  0  0  0  0  0 
    6.1525    3.3400   -1.7655 H   0  0  0  0  0  0  0  0  0  0  0  0 
    7.2988    4.1176    3.3770 H   0  0  0  0  0  0  0  0  0  0  0  0 
    6.1088    5.4076    3.4604 H   0  0  0  0  0  0  0  0  0  0  0  0 
    5.0222    2.1680    0.1632 H   0  0  0  0  0  0  0  0  0  0  0  0 
    3.8225    3.4424    0.2394 H   0  0  0  0  0  0  0  0  0  0  0  0 
    4.3415    3.8176    2.5896 H   0  0  0  0  0  0  0  0  0  0  0  0 
    5.5350    2.5361    2.5355 H   0  0  0  0  0  0  0  0  0  0  0  0 
    4.1786    6.8380    0.8891 H   0  0  0  0  0  0  0  0  0  0  0  0 
    6.9425    1.9580    1.0401 H   0  0  0  0  0  0  0  0  0  0  0  0 
  1  3  1  0  0  0  0 
  2 21  1  0  0  0  0 
  3 24  1  0  0  0  0 
  3 25  1  0  0  0  0 
  3  5  1  0  0  0  0 
  4 26  1  0  0  0  0 
  4  2  1  0  0  0  0 
  4 27  1  0  0  0  0 
  5  7  1  0  0  0  0 
  6  4  1  0  0  0  0 
  7 32  1  0  0  0  0 
  7 33  1  0  0  0  0 
  7 12  1  0  0  0  0 
  8 35  1  0  0  0  0 
  8 34  1  0  0  0  0 
  8  6  1  0  0  0  0 
  9 12  1  0  0  0  0 
  9 15  1  0  0  0  0 
 10 16  1  0  0  0  0 
 10 12  1  0  0  0  0 
 11 14  1  0  0  0  0 
 11 13  2  0  0  0  0 
 12  8  1  0  0  0  0 
 13  9  2  0  0  0  0 
 14 10  2  0  0  0  0 
 16 37  1  0  0  0  0 
 17 11  2  0  0  0  0 
 18  1  1  0  0  0  0 
 19  1  1  0  0  0  0 
 20  1  1  0  0  0  0 
 22  2  1  0  0  0  0 
 23  2  1  0  0  0  0 
 28  5  1  0  0  0  0 
 29  5  1  0  0  0  0 
 30  6  1  0  0  0  0 
 31  6  1  0  0  0  0 
 36 15  1  0  0  0  0 
M  END 
>  <HBA> 
5 
 
>  <HBD> 
2 
 
>  <TPSA> 
75.27 
 
>  <cid> 
28201 
 
>  <dipole> 
7.83 
 
>  <excitation_energy_1> 
4.067 
 
>  <excitation_energy_2> 
4.299 
 
>  <excitation_energy_3> 
5.372 
 
>  <excitation_energy_4> 
5.586 
 
>  <homo_energy> 
-6.898 
 
>  <homo_lumo_gap> 
5.456 
 
>  <logP> 
2.377 
 
>  <lumo_energy> 
-1.442 
 
>  <melting_point> 
139.58 
 
>  <molecular_refractivity> 
71.85 
 
>  <oscillator_strength_1> 
0.0 
 
>  <oscillator_strength_2> 
0.0 
 
>  <oscillator_strength_3> 
0.0 
 
>  <oscillator_strength_4> 
0.0326 
 
>  <open_babel_can_smiles> 
CCCCC1(CCCC)C(=N[C](=[N]=C1O)=O)O 
 
>  <mulliken_charges> 
37 
1   -0.444526 
2   -0.44623 
3   -0.252034 
4   -0.254007 
5   -0.274179 
6   -0.2791 
7   -0.277767 
8   -0.27738 
9   0.570754 
10   0.556467 
11   0.62403 
12   -0.121687 
13   -0.523922 
14   -0.477042 
15   -0.602771 
16   -0.581338 
17   -0.437702 
18   0.148733 
19   0.147237 
20   0.150822 
21   0.150325 
22   0.144004 
23   0.148212 
24   0.132937 
25   0.136092 
26   0.132167 
27   0.146096 
28   0.153205 
29   0.158698 
30   0.15978 
31   0.152779 
32   0.123915 
33   0.172199 
34   0.176595 
35   0.123106 
36   0.422536 
37   0.418997 
 
>  <lowdin_charges> 
37 
1   -0.442854 
2   -0.445746 
3   -0.267473 
4   -0.2702 
5   -0.280977 
6   -0.282046 
7   -0.266378 
8   -0.26627 
9   0.151349 
10   0.15381 
11   0.178425 
12   -0.049719 
13   -0.224401 
14   -0.191603 
15   -0.341166 
16   -0.33148 
17   -0.215852 
18   0.14899 
19   0.154048 
20   0.15042 
21   0.153281 
22   0.146861 
23   0.147984 
24   0.137893 
25   0.139972 
26   0.137609 
27   0.151442 
28   0.148896 
29   0.151313 
30   0.153609 
31   0.148363 
32   0.135898 
33   0.161416 
34   0.162016 
35   0.135095 
36   0.367707 
37   0.359768 
 
$$$$ 
 
