PCCDB-ID:  56134 
public computational chemistry database (PCCDB) project, http://pccdb.org 
 
 34 34  0  0  1  0  0  0  0  0999 V2000 
    0.7608    0.0297   -0.0458 C   0  0  0  0  0  0  0  0  0  0  0  0 
    7.0513   -1.4853   -2.1580 C   0  0  0  0  0  0  0  0  0  0  0  0 
    7.1719    1.0025   -2.0091 C   0  0  0  0  0  0  0  0  0  0  0  0 
    2.9411    1.1510   -0.6966 C   0  0  0  0  0  0  0  0  0  0  0  0 
    4.4760    1.1179   -0.6911 C   0  0  0  0  0  0  0  0  0  0  0  0 
    4.3809   -1.3801   -0.5624 C   0  0  0  0  0  0  0  0  0  0  0  0 
    2.2912   -0.0489    0.0135 C   0  0  2  0  0  0  0  0  0  0  0  0 
    5.0246   -0.1866   -1.3002 C   0  0  2  0  0  0  0  0  0  0  0  0 
    2.8364   -1.3649   -0.5744 C   0  0  2  0  0  0  0  0  0  0  0  0 
    6.5888   -0.2561   -1.3410 C   0  0  0  0  0  0  0  0  0  0  0  0 
    2.2398   -2.5175    0.1209 N   0  0  0  0  0  0  0  0  0  0  0  0 
    7.1036   -0.2866    0.0466 N   0  0  0  0  0  0  0  0  0  0  0  0 
    0.3994    0.9511    0.4271 H   0  0  0  0  0  0  0  0  0  0  0  0 
    0.3030   -0.8270    0.4547 H   0  0  0  0  0  0  0  0  0  0  0  0 
    0.4131    0.0316   -1.0873 H   0  0  0  0  0  0  0  0  0  0  0  0 
    6.6567   -1.4661   -3.1820 H   0  0  0  0  0  0  0  0  0  0  0  0 
    6.7355   -2.4274   -1.6969 H   0  0  0  0  0  0  0  0  0  0  0  0 
    8.1462   -1.5036   -2.2239 H   0  0  0  0  0  0  0  0  0  0  0  0 
    6.7168    1.1761   -2.9909 H   0  0  0  0  0  0  0  0  0  0  0  0 
    8.2527    0.8860   -2.1618 H   0  0  0  0  0  0  0  0  0  0  0  0 
    7.0175    1.8901   -1.3906 H   0  0  0  0  0  0  0  0  0  0  0  0 
    2.5833    1.1755   -1.7380 H   0  0  0  0  0  0  0  0  0  0  0  0 
    2.5895    2.0826   -0.2335 H   0  0  0  0  0  0  0  0  0  0  0  0 
    4.8559    1.2138    0.3340 H   0  0  0  0  0  0  0  0  0  0  0  0 
    4.8461    1.9876   -1.2451 H   0  0  0  0  0  0  0  0  0  0  0  0 
    4.7074   -1.3719    0.4891 H   0  0  0  0  0  0  0  0  0  0  0  0 
    4.7147   -2.3345   -0.9906 H   0  0  0  0  0  0  0  0  0  0  0  0 
    2.5972   -0.0185    1.0738 H   0  0  0  0  0  0  0  0  0  0  0  0 
    4.6931   -0.2301   -2.3507 H   0  0  0  0  0  0  0  0  0  0  0  0 
    2.4984   -1.4280   -1.6206 H   0  0  0  0  0  0  0  0  0  0  0  0 
    2.5755   -2.5323    1.0855 H   0  0  0  0  0  0  0  0  0  0  0  0 
    2.5812   -3.3812   -0.3011 H   0  0  0  0  0  0  0  0  0  0  0  0 
    8.1169   -0.1692    0.0267 H   0  0  0  0  0  0  0  0  0  0  0  0 
    6.9449   -1.2095    0.4499 H   0  0  0  0  0  0  0  0  0  0  0  0 
  1  7  1  0  0  0  0 
  1 13  1  0  0  0  0 
  1 14  1  0  0  0  0 
  2 17  1  0  0  0  0 
  2 10  1  0  0  0  0 
  3 21  1  0  0  0  0 
  3 10  1  0  0  0  0 
  4  5  1  0  0  0  0 
  4 23  1  0  0  0  0 
  4  7  1  0  0  0  0 
  5 24  1  0  0  0  0 
  6 26  1  0  0  0  0 
  7 28  1  1  0  0  0 
  8 29  1  6  0  0  0 
  8  5  1  0  0  0  0 
  8  6  1  0  0  0  0 
  9 30  1  6  0  0  0 
  9  6  1  0  0  0  0 
  9  7  1  0  0  0  0 
  9 11  1  0  0  0  0 
 10  8  1  0  0  0  0 
 10 12  1  0  0  0  0 
 11 31  1  0  0  0  0 
 12 34  1  0  0  0  0 
 15  1  1  0  0  0  0 
 16  2  1  0  0  0  0 
 18  2  1  0  0  0  0 
 19  3  1  0  0  0  0 
 20  3  1  0  0  0  0 
 22  4  1  0  0  0  0 
 25  5  1  0  0  0  0 
 27  6  1  0  0  0  0 
 32 11  1  0  0  0  0 
 33 12  1  0  0  0  0 
M  END 
>  <HBA> 
2 
 
>  <HBD> 
2 
 
>  <TPSA> 
52.04 
 
>  <cid> 
56134 
 
>  <dipole> 
2.41 
 
>  <excitation_energy_1> 
5.468 
 
>  <excitation_energy_2> 
5.628 
 
>  <excitation_energy_3> 
5.931 
 
>  <excitation_energy_4> 
6.08 
 
>  <homo_energy> 
-6.101 
 
>  <homo_lumo_gap> 
7.989 
 
>  <logP> 
2.888 
 
>  <lumo_energy> 
1.888 
 
>  <melting_point> 
112.88 
 
>  <molecular_refractivity> 
53.52 
 
>  <oscillator_strength_1> 
0.0102 
 
>  <oscillator_strength_2> 
0.0485 
 
>  <oscillator_strength_3> 
0.0041 
 
>  <oscillator_strength_4> 
0.0031 
 
>  <open_babel_can_smiles> 
C[C@@H]1CC[C@H](C[C@H]1N)C(N)(C)C 
 
>  <mulliken_charges> 
34 
1   -0.440201 
2   -0.455504 
3   -0.459695 
4   -0.265234 
5   -0.271832 
6   -0.294632 
7   -0.067967 
8   -0.057324 
9   0.02152 
10   0.192734 
11   -0.711421 
12   -0.720165 
13   0.129818 
14   0.165965 
15   0.131215 
16   0.139009 
17   0.137264 
18   0.132082 
19   0.142272 
20   0.130581 
21   0.163676 
22   0.120458 
23   0.127804 
24   0.151287 
25   0.12706 
26   0.122839 
27   0.116775 
28   0.106807 
29   0.10667 
30   0.119513 
31   0.286019 
32   0.290494 
33   0.289947 
34   0.292171 
 
>  <lowdin_charges> 
34 
1   -0.444932 
2   -0.457521 
3   -0.44609 
4   -0.275657 
5   -0.281499 
6   -0.299674 
7   -0.127397 
8   -0.129557 
9   -0.069064 
10   0.063519 
11   -0.545781 
12   -0.54549 
13   0.143534 
14   0.16215 
15   0.141986 
16   0.147174 
17   0.144273 
18   0.142388 
19   0.150708 
20   0.141905 
21   0.158738 
22   0.133159 
23   0.143115 
24   0.149259 
25   0.144208 
26   0.134994 
27   0.135461 
28   0.127907 
29   0.13066 
30   0.132081 
31   0.246916 
32   0.251475 
33   0.24923 
34   0.247823 
 
$$$$ 
 
