PCCDB-ID:  66357 
public computational chemistry database (PCCDB) project, http://pccdb.org 
 
 29 29  0  0  0  0  0  0  0  0999 V2000 
    9.7434   -0.6169    0.9824 C   0  0  0  0  0  0  0  0  0  0  0  0 
    9.9704    0.7970   -1.0830 C   0  0  0  0  0  0  0  0  0  0  0  0 
    2.8288    5.4596    4.3948 C   0  0  0  0  0  0  0  0  0  0  0  0 
    1.9747    4.4484    3.9411 C   0  0  0  0  0  0  0  0  0  0  0  0 
    4.1999    5.3375    4.1818 C   0  0  0  0  0  0  0  0  0  0  0  0 
    2.4850    3.3331    3.2863 C   0  0  0  0  0  0  0  0  0  0  0  0 
    4.7293    4.2219    3.5249 C   0  0  0  0  0  0  0  0  0  0  0  0 
    5.6578    1.8939    2.1793 C   0  0  0  0  0  0  0  0  0  0  0  0 
    5.7734    0.5629    1.4442 C   0  0  0  0  0  0  0  0  0  0  0  0 
    9.2176    0.2379    0.0957 C   0  0  0  0  0  0  0  0  0  0  0  0 
    3.8664    3.2163    3.0760 C   0  0  0  0  0  0  0  0  0  0  0  0 
    7.8045    0.7073    0.2143 C   0  0  0  0  0  0  0  0  0  0  0  0 
    7.2865    1.4754   -0.5730 O   0  0  0  0  0  0  0  0  0  0  0  0 
    4.2712    2.0818    2.4255 O   0  0  0  0  0  0  0  0  0  0  0  0 
    7.1539    0.1908    1.2891 O   0  0  0  0  0  0  0  0  0  0  0  0 
   10.7723   -0.9549    0.8909 H   0  0  0  0  0  0  0  0  0  0  0  0 
    9.1673   -0.9997    1.8170 H   0  0  0  0  0  0  0  0  0  0  0  0 
   10.9945    0.4145   -1.1075 H   0  0  0  0  0  0  0  0  0  0  0  0 
   10.0025    1.8916   -1.0444 H   0  0  0  0  0  0  0  0  0  0  0  0 
    9.4733    0.5360   -2.0239 H   0  0  0  0  0  0  0  0  0  0  0  0 
    2.4275    6.3295    4.9063 H   0  0  0  0  0  0  0  0  0  0  0  0 
    0.9023    4.5293    4.0984 H   0  0  0  0  0  0  0  0  0  0  0  0 
    4.8763    6.1151    4.5271 H   0  0  0  0  0  0  0  0  0  0  0  0 
    1.8368    2.5399    2.9269 H   0  0  0  0  0  0  0  0  0  0  0  0 
    5.7997    4.1500    3.3684 H   0  0  0  0  0  0  0  0  0  0  0  0 
    6.0612    2.7044    1.5602 H   0  0  0  0  0  0  0  0  0  0  0  0 
    6.2211    1.8531    3.1222 H   0  0  0  0  0  0  0  0  0  0  0  0 
    5.2897    0.6238    0.4671 H   0  0  0  0  0  0  0  0  0  0  0  0 
    5.3193   -0.2352    2.0349 H   0  0  0  0  0  0  0  0  0  0  0  0 
  1 17  1  0  0  0  0 
  2 19  1  0  0  0  0 
  2 10  1  0  0  0  0 
  3 21  1  0  0  0  0 
  4 22  1  0  0  0  0 
  4  3  2  0  0  0  0 
  5  3  1  0  0  0  0 
  5 23  1  0  0  0  0 
  6  4  1  0  0  0  0 
  7  5  2  0  0  0  0 
  8 14  1  0  0  0  0 
  8 27  1  0  0  0  0 
  9 29  1  0  0  0  0 
  9  8  1  0  0  0  0 
 10 12  1  0  0  0  0 
 10  1  2  0  0  0  0 
 11  6  2  0  0  0  0 
 11  7  1  0  0  0  0 
 12 15  1  0  0  0  0 
 13 12  2  0  0  0  0 
 14 11  1  0  0  0  0 
 15  9  1  0  0  0  0 
 16  1  1  0  0  0  0 
 18  2  1  0  0  0  0 
 20  2  1  0  0  0  0 
 24  6  1  0  0  0  0 
 25  7  1  0  0  0  0 
 26  8  1  0  0  0  0 
 28  9  1  0  0  0  0 
M  END 
>  <HBA> 
3 
 
>  <HBD> 
0 
 
>  <TPSA> 
35.53 
 
>  <cid> 
66357 
 
>  <dipole> 
2.17 
 
>  <excitation_energy_1> 
4.151 
 
>  <excitation_energy_2> 
4.825 
 
>  <excitation_energy_3> 
5.0 
 
>  <excitation_energy_4> 
5.075 
 
>  <homo_energy> 
-5.943 
 
>  <homo_lumo_gap> 
4.71 
 
>  <logP> 
2.185 
 
>  <lumo_energy> 
-1.233 
 
>  <melting_point> 
0.36 
 
>  <molecular_refractivity> 
57.78 
 
>  <oscillator_strength_1> 
0.0 
 
>  <oscillator_strength_2> 
0.0001 
 
>  <oscillator_strength_3> 
0.0 
 
>  <oscillator_strength_4> 
0.0303 
 
>  <open_babel_can_smiles> 
O=C(C(=C)C)OCCOc1ccccc1 
 
>  <mulliken_charges> 
29 
1   -0.367569 
2   -0.500441 
3   -0.132584 
4   -0.132809 
5   -0.137891 
6   -0.174372 
7   -0.193114 
8   -0.049493 
9   -0.063628 
10   0.125764 
11   0.379502 
12   0.592834 
13   -0.480946 
14   -0.529305 
15   -0.482398 
16   0.150996 
17   0.173626 
18   0.148945 
19   0.173146 
20   0.174997 
21   0.125847 
22   0.130463 
23   0.130117 
24   0.13599 
25   0.134953 
26   0.168231 
27   0.147796 
28   0.18332 
29   0.168024 
 
>  <lowdin_charges> 
29 
1   -0.298128 
2   -0.432129 
3   -0.178444 
4   -0.144341 
5   -0.147182 
6   -0.184444 
7   -0.211691 
8   -0.139727 
9   -0.134227 
10   -0.028177 
11   0.10438 
12   0.195285 
13   -0.265496 
14   -0.203179 
15   -0.19237 
16   0.163436 
17   0.176578 
18   0.155528 
19   0.166894 
20   0.16981 
21   0.15759 
22   0.156736 
23   0.159018 
24   0.166641 
25   0.161203 
26   0.154675 
27   0.142768 
28   0.166166 
29   0.162826 
 
$$$$ 
 
