PCCDB-ID:  66276 
public computational chemistry database (PCCDB) project, http://pccdb.org 
 
 21 21  0  0  0  0  0  0  0  0999 V2000 
   -0.6704    1.1027   -0.0151 C   0  0  0  0  0  0  0  0  0  0  0  0 
   -0.5999   -1.1411   -0.0169 C   0  0  0  0  0  0  0  0  0  0  0  0 
    1.3079    0.0419   -0.0222 C   0  0  0  0  0  0  0  0  0  0  0  0 
   -0.8693    3.5270    0.1664 N   0  0  0  0  0  0  0  0  0  0  0  0 
   -2.5992   -2.5240    0.1755 N   0  0  0  0  0  0  0  0  0  0  0  0 
    3.5091   -0.9979    0.1412 N   0  0  0  0  0  0  0  0  0  0  0  0 
   -1.3743   -0.0505   -0.0085 N   0  0  0  0  0  0  0  0  0  0  0  0 
    0.6613    1.2282   -0.0154 N   0  0  0  0  0  0  0  0  0  0  0  0 
    0.7506   -1.1744   -0.0157 N   0  0  0  0  0  0  0  0  0  0  0  0 
   -1.4123    2.2455   -0.0260 N   0  0  0  0  0  0  0  0  0  0  0  0 
   -1.2194   -2.3552   -0.0332 N   0  0  0  0  0  0  0  0  0  0  0  0 
    2.6680    0.1126   -0.0394 N   0  0  0  0  0  0  0  0  0  0  0  0 
   -0.3631    3.7759   -0.6840 H   0  0  0  0  0  0  0  0  0  0  0  0 
   -0.1549    3.4580    0.8936 H   0  0  0  0  0  0  0  0  0  0  0  0 
   -3.0763   -2.2087   -0.6696 H   0  0  0  0  0  0  0  0  0  0  0  0 
   -2.8874   -1.8695    0.9053 H   0  0  0  0  0  0  0  0  0  0  0  0 
    3.4645   -1.5583   -0.7105 H   0  0  0  0  0  0  0  0  0  0  0  0 
    3.0990   -1.5846    0.8701 H   0  0  0  0  0  0  0  0  0  0  0  0 
   -2.4002    2.1542    0.1618 H   0  0  0  0  0  0  0  0  0  0  0  0 
   -0.6459   -3.1636    0.1601 H   0  0  0  0  0  0  0  0  0  0  0  0 
    3.0861    1.0152    0.1329 H   0  0  0  0  0  0  0  0  0  0  0  0 
  1  7  2  0  0  0  0 
  2  9  1  0  0  0  0 
  2  7  2  0  0  0  0 
  3  9  1  0  0  0  0 
  3  8  2  0  0  0  0 
  4 14  1  0  0  0  0 
  5 16  1  0  0  0  0 
  6 18  1  0  0  0  0 
  8  1  1  0  0  0  0 
 10  1  1  0  0  0  0 
 10 19  1  0  0  0  0 
 10  4  1  0  0  0  0 
 11  2  1  0  0  0  0 
 11 20  1  0  0  0  0 
 11  5  1  0  0  0  0 
 12  3  1  0  0  0  0 
 12 21  1  0  0  0  0 
 12  6  1  0  0  0  0 
 13  4  1  0  0  0  0 
 15  5  1  0  0  0  0 
 17  6  1  0  0  0  0 
M  RAD  1   9   2 
M  END 
>  <HBA> 
9 
 
>  <HBD> 
6 
 
>  <TPSA> 
152.82 
 
>  <cid> 
66276 
 
>  <dipole> 
0.32 
 
>  <excitation_energy_1> 
5.412 
 
>  <excitation_energy_2> 
5.789 
 
>  <excitation_energy_3> 
5.794 
 
>  <excitation_energy_4> 
5.869 
 
>  <homo_energy> 
-6.384 
 
>  <homo_lumo_gap> 
6.637 
 
>  <logP> 
0.048 
 
>  <lumo_energy> 
0.253 
 
>  <melting_point> 
320.24 
 
>  <molecular_refractivity> 
41.45 
 
>  <oscillator_strength_1> 
0.0001 
 
>  <oscillator_strength_2> 
0.0057 
 
>  <oscillator_strength_3> 
0.0077 
 
>  <oscillator_strength_4> 
0.0001 
 
>  <open_babel_can_smiles> 
NNC1=NC(=[N]=C([N]1)NN)NN 
 
>  <mulliken_charges> 
21 
1   0.685976 
2   0.684484 
3   0.687283 
4   -0.555929 
5   -0.556503 
6   -0.555373 
7   -0.581886 
8   -0.582315 
9   -0.582364 
10   -0.534357 
11   -0.533229 
12   -0.535267 
13   0.325212 
14   0.320833 
15   0.325304 
16   0.320464 
17   0.325094 
18   0.321236 
19   0.340471 
20   0.340314 
21   0.340551 
 
>  <lowdin_charges> 
21 
1   0.134231 
2   0.134543 
3   0.135698 
4   -0.453055 
5   -0.453527 
6   -0.454774 
7   -0.284379 
8   -0.284289 
9   -0.28443 
10   -0.214363 
11   -0.21844 
12   -0.216348 
13   0.266382 
14   0.262668 
15   0.266698 
16   0.262681 
17   0.2662 
18   0.263926 
19   0.288641 
20   0.29137 
21   0.290564 
 
$$$$ 
 
