PCCDB-ID:  23217 
public computational chemistry database (PCCDB) project, http://pccdb.org 
 
 51 50  0  0  0  0  0  0  0  0999 V2000 
    2.8046   -2.4414   -4.6762 C   0  0  0  0  0  0  0  0  0  0  0  0 
   16.8320    4.3465    1.6078 C   0  0  0  0  0  0  0  0  0  0  0  0 
    3.7801   -1.6796   -5.1735 C   0  0  0  0  0  0  0  0  0  0  0  0 
   16.2361    3.2629    0.7029 C   0  0  0  0  0  0  0  0  0  0  0  0 
    4.3077   -0.4253   -4.5285 C   0  0  0  0  0  0  0  0  0  0  0  0 
   14.7239    3.0849    0.8998 C   0  0  0  0  0  0  0  0  0  0  0  0 
    5.7823   -0.5125   -4.0735 C   0  0  0  0  0  0  0  0  0  0  0  0 
   14.0920    1.9545    0.0705 C   0  0  0  0  0  0  0  0  0  0  0  0 
    6.7910   -0.6858   -5.2191 C   0  0  0  0  0  0  0  0  0  0  0  0 
   14.1034    2.1842   -1.4478 C   0  0  0  0  0  0  0  0  0  0  0  0 
    8.2603   -0.7777   -4.7695 C   0  0  0  0  0  0  0  0  0  0  0  0 
   13.4057    1.0658   -2.2335 C   0  0  0  0  0  0  0  0  0  0  0  0 
    8.8267    0.5097   -4.1506 C   0  0  0  0  0  0  0  0  0  0  0  0 
   13.4431    1.2798   -3.7551 C   0  0  0  0  0  0  0  0  0  0  0  0 
   10.3126    0.4235   -3.7524 C   0  0  0  0  0  0  0  0  0  0  0  0 
   12.7711    0.1704   -4.5949 C   0  0  0  0  0  0  0  0  0  0  0  0 
   11.2846    0.3775   -4.9408 C   0  0  0  0  0  0  0  0  0  0  0  0 
    2.4649   -3.3423   -5.1810 H   0  0  0  0  0  0  0  0  0  0  0  0 
    2.3034   -2.1909   -3.7427 H   0  0  0  0  0  0  0  0  0  0  0  0 
   17.9114    4.4529    1.4496 H   0  0  0  0  0  0  0  0  0  0  0  0 
   16.6715    4.1107    2.6672 H   0  0  0  0  0  0  0  0  0  0  0  0 
   16.3695    5.3225    1.4144 H   0  0  0  0  0  0  0  0  0  0  0  0 
    4.2443   -1.9746   -6.1155 H   0  0  0  0  0  0  0  0  0  0  0  0 
   16.7395    2.3049    0.8989 H   0  0  0  0  0  0  0  0  0  0  0  0 
   16.4507    3.5107   -0.3449 H   0  0  0  0  0  0  0  0  0  0  0  0 
    3.6813   -0.1794   -3.6617 H   0  0  0  0  0  0  0  0  0  0  0  0 
    4.2107    0.4151   -5.2335 H   0  0  0  0  0  0  0  0  0  0  0  0 
   14.2146    4.0328    0.6688 H   0  0  0  0  0  0  0  0  0  0  0  0 
   14.5307    2.8903    1.9648 H   0  0  0  0  0  0  0  0  0  0  0  0 
    5.8881   -1.3476   -3.3670 H   0  0  0  0  0  0  0  0  0  0  0  0 
    6.0158    0.4012   -3.5120 H   0  0  0  0  0  0  0  0  0  0  0  0 
   13.0513    1.8175    0.3974 H   0  0  0  0  0  0  0  0  0  0  0  0 
   14.6068    1.0088    0.2978 H   0  0  0  0  0  0  0  0  0  0  0  0 
    6.6804    0.1487   -5.9283 H   0  0  0  0  0  0  0  0  0  0  0  0 
    6.5461   -1.5966   -5.7809 H   0  0  0  0  0  0  0  0  0  0  0  0 
   15.1382    2.2795   -1.8055 H   0  0  0  0  0  0  0  0  0  0  0  0 
   13.6151    3.1448   -1.6713 H   0  0  0  0  0  0  0  0  0  0  0  0 
    8.8669   -1.0607   -5.6394 H   0  0  0  0  0  0  0  0  0  0  0  0 
    8.3654   -1.6002   -4.0460 H   0  0  0  0  0  0  0  0  0  0  0  0 
   12.3688    0.9732   -1.8854 H   0  0  0  0  0  0  0  0  0  0  0  0 
   13.8889    0.1053   -1.9999 H   0  0  0  0  0  0  0  0  0  0  0  0 
    8.2438    0.7700   -3.2578 H   0  0  0  0  0  0  0  0  0  0  0  0 
    8.6879    1.3425   -4.8569 H   0  0  0  0  0  0  0  0  0  0  0  0 
   14.4975    1.3600   -4.0548 H   0  0  0  0  0  0  0  0  0  0  0  0 
   12.9907    2.2518   -4.0031 H   0  0  0  0  0  0  0  0  0  0  0  0 
   10.4651   -0.4629   -3.1182 H   0  0  0  0  0  0  0  0  0  0  0  0 
   10.5526    1.2918   -3.1255 H   0  0  0  0  0  0  0  0  0  0  0  0 
   12.8963   -0.7966   -4.0849 H   0  0  0  0  0  0  0  0  0  0  0  0 
   13.3127    0.0756   -5.5455 H   0  0  0  0  0  0  0  0  0  0  0  0 
   11.1813    1.3100   -5.5165 H   0  0  0  0  0  0  0  0  0  0  0  0 
   10.9862   -0.4306   -5.6221 H   0  0  0  0  0  0  0  0  0  0  0  0 
  1 19  1  0  0  0  0 
  2 21  1  0  0  0  0 
  3  1  2  0  0  0  0 
  3  5  1  0  0  0  0 
  4 24  1  0  0  0  0 
  4  6  1  0  0  0  0 
  4  2  1  0  0  0  0 
  5  7  1  0  0  0  0 
  5 26  1  0  0  0  0 
  6 29  1  0  0  0  0 
  7 31  1  0  0  0  0 
  7 30  1  0  0  0  0 
  8 33  1  0  0  0  0 
  8 32  1  0  0  0  0 
  8  6  1  0  0  0  0 
  9 11  1  0  0  0  0 
  9  7  1  0  0  0  0 
 10  8  1  0  0  0  0 
 11 13  1  0  0  0  0 
 11 39  1  0  0  0  0 
 12 41  1  0  0  0  0 
 12 40  1  0  0  0  0 
 12 10  1  0  0  0  0 
 13 15  1  0  0  0  0 
 13 42  1  0  0  0  0 
 14 12  1  0  0  0  0 
 15 47  1  0  0  0  0 
 15 46  1  0  0  0  0 
 16 48  1  0  0  0  0 
 16 14  1  0  0  0  0 
 17 16  1  0  0  0  0 
 17 15  1  0  0  0  0 
 18  1  1  0  0  0  0 
 20  2  1  0  0  0  0 
 22  2  1  0  0  0  0 
 23  3  1  0  0  0  0 
 25  4  1  0  0  0  0 
 27  5  1  0  0  0  0 
 28  6  1  0  0  0  0 
 34  9  1  0  0  0  0 
 35  9  1  0  0  0  0 
 36 10  1  0  0  0  0 
 37 10  1  0  0  0  0 
 38 11  1  0  0  0  0 
 43 13  1  0  0  0  0 
 44 14  1  0  0  0  0 
 45 14  1  0  0  0  0 
 49 16  1  0  0  0  0 
 50 17  1  0  0  0  0 
 51 17  1  0  0  0  0 
M  END 
>  <HBA> 
0 
 
>  <HBD> 
0 
 
>  <TPSA> 
0.0 
 
>  <cid> 
23217 
 
>  <dipole> 
0.36 
 
>  <excitation_energy_1> 
6.455 
 
>  <excitation_energy_2> 
6.621 
 
>  <excitation_energy_3> 
6.808 
 
>  <excitation_energy_4> 
6.904 
 
>  <homo_energy> 
-6.77 
 
>  <homo_lumo_gap> 
7.429 
 
>  <logP> 
6.654 
 
>  <lumo_energy> 
0.659 
 
>  <melting_point> 
-54.47 
 
>  <molecular_refractivity> 
83.36 
 
>  <oscillator_strength_1> 
0.0758 
 
>  <oscillator_strength_2> 
0.0372 
 
>  <oscillator_strength_3> 
0.055 
 
>  <oscillator_strength_4> 
0.1159 
 
>  <open_babel_can_smiles> 
CCCCCCCCCCCCCCCC=C 
 
>  <mulliken_charges> 
51 
1   -0.341761 
2   -0.441203 
3   -0.040926 
4   -0.24801 
5   -0.30576 
6   -0.247121 
7   -0.25395 
8   -0.254908 
9   -0.258003 
10   -0.254143 
11   -0.257223 
12   -0.25923 
13   -0.257616 
14   -0.254215 
15   -0.254617 
16   -0.259829 
17   -0.257323 
18   0.136212 
19   0.132962 
20   0.140589 
21   0.140548 
22   0.140887 
23   0.126141 
24   0.128464 
25   0.135301 
26   0.135337 
27   0.138444 
28   0.124967 
29   0.125479 
30   0.134903 
31   0.134947 
32   0.126074 
33   0.125503 
34   0.125338 
35   0.13222 
36   0.131188 
37   0.124909 
38   0.132611 
39   0.127274 
40   0.136012 
41   0.126389 
42   0.131896 
43   0.124694 
44   0.127371 
45   0.126756 
46   0.125977 
47   0.134061 
48   0.127719 
49   0.127616 
50   0.125611 
51   0.131436 
 
>  <lowdin_charges> 
51 
1   -0.344413 
2   -0.440407 
3   -0.146342 
4   -0.273302 
5   -0.274079 
6   -0.273837 
7   -0.276189 
8   -0.273999 
9   -0.279162 
10   -0.275689 
11   -0.278303 
12   -0.276745 
13   -0.279317 
14   -0.276481 
15   -0.279591 
16   -0.276959 
17   -0.277659 
18   0.156842 
19   0.152279 
20   0.146802 
21   0.144112 
22   0.145619 
23   0.148757 
24   0.137736 
25   0.138727 
26   0.147979 
27   0.147152 
28   0.136603 
29   0.137726 
30   0.14227 
31   0.142564 
32   0.138463 
33   0.136877 
34   0.137144 
35   0.142204 
36   0.137182 
37   0.136153 
38   0.142003 
39   0.138313 
40   0.139272 
41   0.136501 
42   0.14172 
43   0.137264 
44   0.138864 
45   0.137252 
46   0.137574 
47   0.142602 
48   0.138163 
49   0.142691 
50   0.136112 
51   0.140951 
 
$$$$ 
 
