PCCDB-ID:  32196 
public computational chemistry database (PCCDB) project, http://pccdb.org 
 
 15 15  0  0  1  0  0  0  0  0999 V2000 
    1.0075   -0.1124    0.1209 C   0  0  0  0  0  0  0  0  0  0  0  0 
    3.0333   -1.4071   -1.9611 C   0  0  0  0  0  0  0  0  0  0  0  0 
    3.6370   -0.0855   -2.4861 C   0  0  0  0  0  0  0  0  0  0  0  0 
    2.5255   -0.1136   -0.0358 C   0  0  1  0  0  0  0  0  0  0  0  0 
    3.0418   -1.3892   -0.4976 N   0  0  0  0  0  0  0  0  0  0  0  0 
    3.0741    1.2063   -1.3024 S   0  0  0  0  0  0  0  0  0  0  0  0 
    0.7155   -0.8476    0.8800 H   0  0  0  0  0  0  0  0  0  0  0  0 
    0.5079   -0.3635   -0.8195 H   0  0  0  0  0  0  0  0  0  0  0  0 
    0.6545    0.8759    0.4319 H   0  0  0  0  0  0  0  0  0  0  0  0 
    3.5873   -2.2806   -2.3207 H   0  0  0  0  0  0  0  0  0  0  0  0 
    1.9992   -1.5030   -2.3084 H   0  0  0  0  0  0  0  0  0  0  0  0 
    3.2833    0.1558   -3.4925 H   0  0  0  0  0  0  0  0  0  0  0  0 
    4.7314   -0.1266   -2.5023 H   0  0  0  0  0  0  0  0  0  0  0  0 
    2.9954    0.1384    0.9185 H   0  0  0  0  0  0  0  0  0  0  0  0 
    4.0060   -1.4864   -0.1823 H   0  0  0  0  0  0  0  0  0  0  0  0 
  1  9  1  0  0  0  0 
  1  7  1  0  0  0  0 
  2  5  1  0  0  0  0 
  3  2  1  0  0  0  0 
  3  6  1  0  0  0  0 
  4  1  1  0  0  0  0 
  4 14  1  1  0  0  0 
  5 15  1  0  0  0  0 
  5  4  1  0  0  0  0 
  6  4  1  0  0  0  0 
  8  1  1  0  0  0  0 
 10  2  1  0  0  0  0 
 11  2  1  0  0  0  0 
 12  3  1  0  0  0  0 
 13  3  1  0  0  0  0 
M  END 
>  <HBA> 
2 
 
>  <HBD> 
1 
 
>  <TPSA> 
37.33 
 
>  <cid> 
32196 
 
>  <dipole> 
1.76 
 
>  <excitation_energy_1> 
4.93 
 
>  <excitation_energy_2> 
5.094 
 
>  <excitation_energy_3> 
5.722 
 
>  <excitation_energy_4> 
5.752 
 
>  <homo_energy> 
-5.802 
 
>  <homo_lumo_gap> 
6.64 
 
>  <logP> 
0.998 
 
>  <lumo_energy> 
0.838 
 
>  <melting_point> 
33.49 
 
>  <molecular_refractivity> 
33.54 
 
>  <oscillator_strength_1> 
0.0013 
 
>  <oscillator_strength_2> 
0.0084 
 
>  <oscillator_strength_3> 
0.0031 
 
>  <oscillator_strength_4> 
0.0188 
 
>  <open_babel_can_smiles> 
C[C@H]1NCCS1 
 
>  <mulliken_charges> 
15 
1   -0.41312 
2   -0.161305 
3   -0.41553 
4   -0.123744 
5   -0.504717 
6   0.023315 
7   0.153572 
8   0.156048 
9   0.154365 
10   0.153859 
11   0.16481 
12   0.175735 
13   0.166075 
14   0.164025 
15   0.30661 
 
>  <lowdin_charges> 
15 
1   -0.447519 
2   -0.212489 
3   -0.386829 
4   -0.145451 
5   -0.33317 
6   0.015666 
7   0.156057 
8   0.156171 
9   0.157989 
10   0.155108 
11   0.15152 
12   0.166227 
13   0.150575 
14   0.156913 
15   0.259232 
 
$$$$ 
 
