PCCDB-ID:  68384 
public computational chemistry database (PCCDB) project, http://pccdb.org 
 
 25 25  0  0  0  0  0  0  0  0999 V2000 
    1.2087   -1.9840   -0.2633 C   0  0  0  0  0  0  0  0  0  0  0  0 
    3.8750    0.7423    0.1436 C   0  0  0  0  0  0  0  0  0  0  0  0 
    5.0373   -0.0214    0.2714 C   0  0  0  0  0  0  0  0  0  0  0  0 
    1.3958    1.0267   -0.1287 C   0  0  0  0  0  0  0  0  0  0  0  0 
    0.7439    1.3236    1.2327 C   0  0  0  0  0  0  0  0  0  0  0  0 
    2.5254   -1.2666   -0.0650 C   0  0  0  0  0  0  0  0  0  0  0  0 
    2.6228    0.1427   -0.0229 C   0  0  0  0  0  0  0  0  0  0  0  0 
    4.9429   -1.4048    0.2271 C   0  0  0  0  0  0  0  0  0  0  0  0 
    3.6956   -2.0251    0.0547 C   0  0  0  0  0  0  0  0  0  0  0  0 
   -0.3905    2.2392    1.0645 N   0  0  0  0  0  0  0  0  0  0  0  0 
    6.0131   -2.2718    0.3348 O   0  0  0  0  0  0  0  0  0  0  0  0 
    3.6316   -3.3924    0.0027 O   0  0  0  0  0  0  0  0  0  0  0  0 
    0.4149   -1.5555    0.3570 H   0  0  0  0  0  0  0  0  0  0  0  0 
    1.3027   -3.0419   -0.0110 H   0  0  0  0  0  0  0  0  0  0  0  0 
    0.8742   -1.9240   -1.3079 H   0  0  0  0  0  0  0  0  0  0  0  0 
    3.9470    1.8265    0.1688 H   0  0  0  0  0  0  0  0  0  0  0  0 
    6.0065    0.4578    0.3977 H   0  0  0  0  0  0  0  0  0  0  0  0 
    1.6652    1.9869   -0.5830 H   0  0  0  0  0  0  0  0  0  0  0  0 
    0.6478    0.5716   -0.7911 H   0  0  0  0  0  0  0  0  0  0  0  0 
    1.4825    1.8171    1.8759 H   0  0  0  0  0  0  0  0  0  0  0  0 
    0.4867    0.3709    1.7304 H   0  0  0  0  0  0  0  0  0  0  0  0 
   -1.1346    1.7681    0.5503 H   0  0  0  0  0  0  0  0  0  0  0  0 
   -0.7843    2.4709    1.9753 H   0  0  0  0  0  0  0  0  0  0  0  0 
    6.8266   -1.7640    0.4705 H   0  0  0  0  0  0  0  0  0  0  0  0 
    4.5382   -3.7246    0.1191 H   0  0  0  0  0  0  0  0  0  0  0  0 
  1  6  1  0  0  0  0 
  1 14  1  0  0  0  0 
  1 13  1  0  0  0  0 
  2 16  1  0  0  0  0 
  2  3  2  0  0  0  0 
  3 17  1  0  0  0  0 
  4  7  1  0  0  0  0 
  4  5  1  0  0  0  0 
  5 21  1  0  0  0  0 
  5 20  1  0  0  0  0 
  6  7  2  0  0  0  0 
  6  9  1  0  0  0  0 
  7  2  1  0  0  0  0 
  8  3  1  0  0  0  0 
  8 11  1  0  0  0  0 
  9  8  2  0  0  0  0 
 10  5  1  0  0  0  0 
 10 23  1  0  0  0  0 
 11 24  1  0  0  0  0 
 12  9  1  0  0  0  0 
 12 25  1  0  0  0  0 
 15  1  1  0  0  0  0 
 18  4  1  0  0  0  0 
 19  4  1  0  0  0  0 
 22 10  1  0  0  0  0 
M  END 
>  <HBA> 
3 
 
>  <HBD> 
3 
 
>  <TPSA> 
66.48 
 
>  <cid> 
68384 
 
>  <dipole> 
1.65 
 
>  <excitation_energy_1> 
4.59 
 
>  <excitation_energy_2> 
4.89 
 
>  <excitation_energy_3> 
5.204 
 
>  <excitation_energy_4> 
5.264 
 
>  <homo_energy> 
-5.448 
 
>  <homo_lumo_gap> 
5.761 
 
>  <logP> 
1.608 
 
>  <lumo_energy> 
0.313 
 
>  <melting_point> 
147.53 
 
>  <molecular_refractivity> 
47.93 
 
>  <oscillator_strength_1> 
0.0006 
 
>  <oscillator_strength_2> 
0.04 
 
>  <oscillator_strength_3> 
0.0024 
 
>  <oscillator_strength_4> 
0.0008 
 
>  <open_babel_can_smiles> 
NCCc1ccc(c(c1C)O)O 
 
>  <mulliken_charges> 
25 
1   -0.538993 
2   -0.199409 
3   -0.194289 
4   -0.343359 
5   -0.13349 
6   0.085091 
7   0.106075 
8   0.307787 
9   0.256795 
10   -0.715341 
11   -0.685013 
12   -0.66268 
13   0.151885 
14   0.182953 
15   0.161231 
16   0.121888 
17   0.116434 
18   0.155042 
19   0.133921 
20   0.142972 
21   0.12033 
22   0.29126 
23   0.295333 
24   0.415924 
25   0.427653 
 
>  <lowdin_charges> 
25 
1   -0.444386 
2   -0.176077 
3   -0.208065 
4   -0.278463 
5   -0.204749 
6   -0.032737 
7   -0.017908 
8   0.053187 
9   0.070973 
10   -0.561067 
11   -0.405875 
12   -0.38684 
13   0.155641 
14   0.170718 
15   0.158425 
16   0.15356 
17   0.152876 
18   0.156783 
19   0.146378 
20   0.144987 
21   0.118728 
22   0.251775 
23   0.254254 
24   0.364929 
25   0.362953 
 
$$$$ 
 
