PCCDB-ID:  7872 
public computational chemistry database (PCCDB) project, http://pccdb.org 
 
 27 26  0  0  0  0  0  0  0  0999 V2000 
    2.2533    0.8709    2.1230 C   0  0  0  0  0  0  0  0  0  0  0  0 
    4.0821    1.6916    3.6312 C   0  0  0  0  0  0  0  0  0  0  0  0 
    3.6998   -0.7894    3.3246 C   0  0  0  0  0  0  0  0  0  0  0  0 
    7.1253    0.3014    0.0025 C   0  0  0  0  0  0  0  0  0  0  0  0 
    6.9758    2.1234    1.7202 C   0  0  0  0  0  0  0  0  0  0  0  0 
    7.0360   -0.3003    2.4357 C   0  0  0  0  0  0  0  0  0  0  0  0 
    3.6763    0.5891    2.6441 C   0  0  0  0  0  0  0  0  0  0  0  0 
    6.5395    0.6902    1.3743 C   0  0  0  0  0  0  0  0  0  0  0  0 
    4.6883    0.5902    1.0588 S   0  0  0  0  0  0  0  0  0  0  0  0 
    1.5447    0.8357    2.9601 H   0  0  0  0  0  0  0  0  0  0  0  0 
    1.9408    0.1221    1.3867 H   0  0  0  0  0  0  0  0  0  0  0  0 
    2.1867    1.8589    1.6564 H   0  0  0  0  0  0  0  0  0  0  0  0 
    3.3559    1.7269    4.4544 H   0  0  0  0  0  0  0  0  0  0  0  0 
    4.0971    2.6737    3.1487 H   0  0  0  0  0  0  0  0  0  0  0  0 
    5.0654    1.5077    4.0747 H   0  0  0  0  0  0  0  0  0  0  0  0 
    3.0014   -0.7964    4.1728 H   0  0  0  0  0  0  0  0  0  0  0  0 
    4.6913   -1.0415    3.7086 H   0  0  0  0  0  0  0  0  0  0  0  0 
    3.3965   -1.5753    2.6259 H   0  0  0  0  0  0  0  0  0  0  0  0 
    8.2191    0.3860    0.0345 H   0  0  0  0  0  0  0  0  0  0  0  0 
    6.7609    0.9631   -0.7911 H   0  0  0  0  0  0  0  0  0  0  0  0 
    6.8668   -0.7283   -0.2637 H   0  0  0  0  0  0  0  0  0  0  0  0 
    8.0720    2.1735    1.7789 H   0  0  0  0  0  0  0  0  0  0  0  0 
    6.5765    2.4538    2.6823 H   0  0  0  0  0  0  0  0  0  0  0  0 
    6.6425    2.8295    0.9535 H   0  0  0  0  0  0  0  0  0  0  0  0 
    8.1342   -0.2908    2.4571 H   0  0  0  0  0  0  0  0  0  0  0  0 
    6.7098   -1.3211    2.2137 H   0  0  0  0  0  0  0  0  0  0  0  0 
    6.6911   -0.0362    3.4399 H   0  0  0  0  0  0  0  0  0  0  0  0 
  1  7  1  0  0  0  0 
  1 10  1  0  0  0  0 
  2 15  1  0  0  0  0 
  2 13  1  0  0  0  0 
  3 17  1  0  0  0  0 
  3 16  1  0  0  0  0 
  4 19  1  0  0  0  0 
  4  8  1  0  0  0  0 
  5 22  1  0  0  0  0 
  5 23  1  0  0  0  0 
  6 25  1  0  0  0  0 
  6 27  1  0  0  0  0 
  7  3  1  0  0  0  0 
  7  2  1  0  0  0  0 
  8  5  1  0  0  0  0 
  8  6  1  0  0  0  0 
  9  8  1  0  0  0  0 
  9  7  1  0  0  0  0 
 11  1  1  0  0  0  0 
 12  1  1  0  0  0  0 
 14  2  1  0  0  0  0 
 18  3  1  0  0  0  0 
 20  4  1  0  0  0  0 
 21  4  1  0  0  0  0 
 24  5  1  0  0  0  0 
 26  6  1  0  0  0  0 
M  END 
>  <HBA> 
1 
 
>  <HBD> 
0 
 
>  <TPSA> 
25.3 
 
>  <cid> 
7872 
 
>  <dipole> 
1.55 
 
>  <excitation_energy_1> 
5.232 
 
>  <excitation_energy_2> 
5.596 
 
>  <excitation_energy_3> 
5.699 
 
>  <excitation_energy_4> 
5.73 
 
>  <homo_energy> 
-5.717 
 
>  <homo_lumo_gap> 
7.146 
 
>  <logP> 
3.317 
 
>  <lumo_energy> 
1.429 
 
>  <melting_point> 
3.12 
 
>  <molecular_refractivity> 
48.24 
 
>  <oscillator_strength_1> 
0.0318 
 
>  <oscillator_strength_2> 
0.0001 
 
>  <oscillator_strength_3> 
0.0001 
 
>  <oscillator_strength_4> 
0.0025 
 
>  <open_babel_can_smiles> 
CC(SC(C)(C)C)(C)C 
 
>  <mulliken_charges> 
27 
1   -0.446304 
2   -0.439476 
3   -0.429606 
4   -0.44635 
5   -0.429516 
6   -0.439905 
7   -0.066833 
8   -0.066556 
9   0.050487 
10   0.142828 
11   0.160527 
12   0.160913 
13   0.142439 
14   0.158949 
15   0.149342 
16   0.13672 
17   0.149106 
18   0.156291 
19   0.142751 
20   0.160558 
21   0.16085 
22   0.136682 
23   0.149136 
24   0.156127 
25   0.142502 
26   0.158855 
27   0.149484 
 
>  <lowdin_charges> 
27 
1   -0.444325 
2   -0.443995 
3   -0.447381 
4   -0.441741 
5   -0.445232 
6   -0.440884 
7   -0.067481 
8   -0.066821 
9   0.040918 
10   0.150811 
11   0.15985 
12   0.158541 
13   0.150311 
14   0.157503 
15   0.148496 
16   0.146133 
17   0.152726 
18   0.158486 
19   0.148197 
20   0.159839 
21   0.158032 
22   0.143682 
23   0.15294 
24   0.158476 
25   0.147744 
26   0.156957 
27   0.148217 
 
$$$$ 
 
