PCCDB-ID:  57936 
public computational chemistry database (PCCDB) project, http://pccdb.org 
 
 36 36  0  0  1  0  0  0  0  0999 V2000 
    4.7163   -3.6710   -0.5538 C   0  0  0  0  0  0  0  0  0  0  0  0 
    2.0604    0.0600   -0.5273 C   0  0  0  0  0  0  0  0  0  0  0  0 
    6.6314    2.1291   -7.5502 C   0  0  0  0  0  0  0  0  0  0  0  0 
    5.2295   -2.2570   -0.8510 C   0  0  0  0  0  0  0  0  0  0  0  0 
    3.2125   -0.8558   -0.1032 C   0  0  0  0  0  0  0  0  0  0  0  0 
    6.3215    1.5166   -4.5930 C   0  0  0  0  0  0  0  0  0  0  0  0 
    5.7014   -0.7008   -5.2424 C   0  0  0  0  0  0  0  0  0  0  0  0 
    5.8034    1.2940   -3.3221 C   0  0  0  0  0  0  0  0  0  0  0  0 
    5.1744   -0.9452   -3.9726 C   0  0  0  0  0  0  0  0  0  0  0  0 
    6.8790    0.7249   -6.9694 C   0  0  2  0  0  0  0  0  0  0  0  0 
    6.2790    0.5245   -5.5845 C   0  0  0  0  0  0  0  0  0  0  0  0 
    4.1308   -1.2621   -1.2584 C   0  0  0  0  0  0  0  0  0  0  0  0 
    5.2212    0.0601   -2.9981 C   0  0  0  0  0  0  0  0  0  0  0  0 
    8.3049    0.3338   -6.9348 N   0  0  0  0  0  0  0  0  0  0  0  0 
    4.7268   -0.0386   -1.7281 O   0  0  0  0  0  0  0  0  0  0  0  0 
    5.5501   -4.3432   -0.3243 H   0  0  0  0  0  0  0  0  0  0  0  0 
    4.1819   -4.0907   -1.4155 H   0  0  0  0  0  0  0  0  0  0  0  0 
    4.0333   -3.6923    0.3023 H   0  0  0  0  0  0  0  0  0  0  0  0 
    1.4340    0.3241    0.3319 H   0  0  0  0  0  0  0  0  0  0  0  0 
    1.4180   -0.4294   -1.2699 H   0  0  0  0  0  0  0  0  0  0  0  0 
    2.4411    0.9851   -0.9697 H   0  0  0  0  0  0  0  0  0  0  0  0 
    5.5632    2.3760   -7.5709 H   0  0  0  0  0  0  0  0  0  0  0  0 
    7.0100    2.1828   -8.5783 H   0  0  0  0  0  0  0  0  0  0  0  0 
    7.1471    2.9045   -6.9710 H   0  0  0  0  0  0  0  0  0  0  0  0 
    5.9680   -2.3053   -1.6595 H   0  0  0  0  0  0  0  0  0  0  0  0 
    5.7549   -1.8504    0.0230 H   0  0  0  0  0  0  0  0  0  0  0  0 
    2.8113   -1.7667    0.3575 H   0  0  0  0  0  0  0  0  0  0  0  0 
    3.8263   -0.3596    0.6601 H   0  0  0  0  0  0  0  0  0  0  0  0 
    6.7598    2.4872   -4.8098 H   0  0  0  0  0  0  0  0  0  0  0  0 
    5.6664   -1.4946   -5.9851 H   0  0  0  0  0  0  0  0  0  0  0  0 
    5.8332    2.0665   -2.5597 H   0  0  0  0  0  0  0  0  0  0  0  0 
    4.7384   -1.9144   -3.7595 H   0  0  0  0  0  0  0  0  0  0  0  0 
    6.3897    0.0046   -7.6392 H   0  0  0  0  0  0  0  0  0  0  0  0 
    3.5160   -1.6929   -2.0628 H   0  0  0  0  0  0  0  0  0  0  0  0 
    8.7916    0.9160   -6.2524 H   0  0  0  0  0  0  0  0  0  0  0  0 
    8.7320    0.5408   -7.8389 H   0  0  0  0  0  0  0  0  0  0  0  0 
  1 16  1  0  0  0  0 
  1 18  1  0  0  0  0 
  2  5  1  0  0  0  0 
  2 19  1  0  0  0  0 
  3 24  1  0  0  0  0 
  3 10  1  0  0  0  0 
  4  1  1  0  0  0  0 
  4 26  1  0  0  0  0 
  5 27  1  0  0  0  0 
  5 28  1  0  0  0  0 
  6  8  2  0  0  0  0 
  7  9  1  0  0  0  0 
  8 13  1  0  0  0  0 
  8 31  1  0  0  0  0 
  9 32  1  0  0  0  0 
  9 13  2  0  0  0  0 
 10 33  1  6  0  0  0 
 10 14  1  0  0  0  0 
 10 11  1  0  0  0  0 
 11  7  2  0  0  0  0 
 11  6  1  0  0  0  0 
 12  4  1  0  0  0  0 
 12  5  1  0  0  0  0 
 13 15  1  0  0  0  0 
 14 35  1  0  0  0  0 
 15 12  1  0  0  0  0 
 17  1  1  0  0  0  0 
 20  2  1  0  0  0  0 
 21  2  1  0  0  0  0 
 22  3  1  0  0  0  0 
 23  3  1  0  0  0  0 
 25  4  1  0  0  0  0 
 29  6  1  0  0  0  0 
 30  7  1  0  0  0  0 
 34 12  1  0  0  0  0 
 36 14  1  0  0  0  0 
M  END 
>  <HBA> 
2 
 
>  <HBD> 
1 
 
>  <TPSA> 
35.25 
 
>  <cid> 
57936 
 
>  <dipole> 
0.45 
 
>  <excitation_energy_1> 
4.904 
 
>  <excitation_energy_2> 
5.283 
 
>  <excitation_energy_3> 
5.435 
 
>  <excitation_energy_4> 
5.54 
 
>  <homo_energy> 
-5.641 
 
>  <homo_lumo_gap> 
5.78 
 
>  <logP> 
3.974 
 
>  <lumo_energy> 
0.139 
 
>  <melting_point> 
64.19 
 
>  <molecular_refractivity> 
64.64 
 
>  <oscillator_strength_1> 
0.0256 
 
>  <oscillator_strength_2> 
0.0086 
 
>  <oscillator_strength_3> 
0.0869 
 
>  <oscillator_strength_4> 
0.0076 
 
>  <open_babel_can_smiles> 
CCC(Oc1ccc(cc1)[C@H](N)C)CC 
 
>  <mulliken_charges> 
36 
1   -0.456595 
2   -0.448454 
3   -0.453381 
4   -0.274653 
5   -0.268055 
6   -0.192313 
7   -0.187678 
8   -0.183802 
9   -0.189306 
10   -0.05721 
11   0.182467 
12   0.147769 
13   0.382806 
14   -0.699033 
15   -0.54657 
16   0.152111 
17   0.14408 
18   0.149908 
19   0.142366 
20   0.139411 
21   0.1661 
22   0.149741 
23   0.13545 
24   0.138876 
25   0.153209 
26   0.143096 
27   0.138048 
28   0.144551 
29   0.12108 
30   0.12804 
31   0.132295 
32   0.13174 
33   0.132798 
34   0.123961 
35   0.289696 
36   0.287453 
 
>  <lowdin_charges> 
36 
1   -0.448812 
2   -0.448201 
3   -0.460803 
4   -0.289857 
5   -0.280656 
6   -0.159839 
7   -0.14671 
8   -0.187238 
9   -0.214775 
10   -0.060854 
11   -0.025418 
12   0.004056 
13   0.104689 
14   -0.552954 
15   -0.202991 
16   0.156707 
17   0.147958 
18   0.149096 
19   0.151178 
20   0.147044 
21   0.158591 
22   0.152597 
23   0.14497 
24   0.14542 
25   0.155212 
26   0.149349 
27   0.147981 
28   0.150203 
29   0.15376 
30   0.158616 
31   0.164321 
32   0.160075 
33   0.143317 
34   0.133413 
35   0.252162 
36   0.248392 
 
$$$$ 
 
