PCCDB-ID:  72358 
public computational chemistry database (PCCDB) project, http://pccdb.org 
 
 26 26  0  0  0  0  0  0  0  0999 V2000 
    0.6689   -1.1921   -1.0651 C   0  0  0  0  0  0  0  0  0  0  0  0 
    4.1716    4.7400   -0.6633 C   0  0  0  0  0  0  0  0  0  0  0  0 
    4.7287    3.3463   -0.9005 C   0  0  0  0  0  0  0  0  0  0  0  0 
    2.6712    0.1753   -1.7615 C   0  0  0  0  0  0  0  0  0  0  0  0 
    4.5136    1.5924   -2.5197 C   0  0  0  0  0  0  0  0  0  0  0  0 
    2.1241   -0.8099   -0.9966 C   0  0  0  0  0  0  0  0  0  0  0  0 
    3.0633   -1.4617   -0.1149 C   0  0  0  0  0  0  0  0  0  0  0  0 
    4.8676   -0.1396   -0.7455 C   0  0  0  0  0  0  0  0  0  0  0  0 
    4.3235   -1.1594   -0.0027 N   0  0  0  0  0  0  0  0  0  0  0  0 
    3.9893    0.5045   -1.6866 N   0  0  0  0  0  0  0  0  0  0  0  0 
    2.7623    4.7179   -0.5034 O   0  0  0  0  0  0  0  0  0  0  0  0 
    2.6435   -2.4757    0.6727 O   0  0  0  0  0  0  0  0  0  0  0  0 
    6.0244    0.2396   -0.6562 O   0  0  0  0  0  0  0  0  0  0  0  0 
    4.1003    2.8654   -2.0998 O   0  0  0  0  0  0  0  0  0  0  0  0 
    0.1401   -0.5748   -1.7976 H   0  0  0  0  0  0  0  0  0  0  0  0 
    0.1573   -1.0521   -0.1024 H   0  0  0  0  0  0  0  0  0  0  0  0 
    0.5270   -2.2390   -1.3696 H   0  0  0  0  0  0  0  0  0  0  0  0 
    4.4713    5.3980   -1.4949 H   0  0  0  0  0  0  0  0  0  0  0  0 
    4.5909    5.1504    0.2610 H   0  0  0  0  0  0  0  0  0  0  0  0 
    4.4859    2.6902   -0.0561 H   0  0  0  0  0  0  0  0  0  0  0  0 
    5.8200    3.3640   -1.0260 H   0  0  0  0  0  0  0  0  0  0  0  0 
    2.0801    0.7512   -2.4682 H   0  0  0  0  0  0  0  0  0  0  0  0 
    4.1252    1.4696   -3.5341 H   0  0  0  0  0  0  0  0  0  0  0  0 
    5.6005    1.4867   -2.5035 H   0  0  0  0  0  0  0  0  0  0  0  0 
    2.4199    4.2504   -1.2824 H   0  0  0  0  0  0  0  0  0  0  0  0 
    1.6962   -2.6304    0.5318 H   0  0  0  0  0  0  0  0  0  0  0  0 
  1  6  1  0  0  0  0 
  1 16  1  0  0  0  0 
  2 11  1  0  0  0  0 
  2 19  1  0  0  0  0 
  3  2  1  0  0  0  0 
  3 20  1  0  0  0  0 
  4 10  1  0  0  0  0 
  4  6  2  0  0  0  0 
  5 24  1  0  0  0  0 
  5 14  1  0  0  0  0 
  5 10  1  0  0  0  0 
  6  7  1  0  0  0  0 
  7  9  2  0  0  0  0 
  7 12  1  0  0  0  0 
  8 13  2  0  0  0  0 
  8  9  1  0  0  0  0 
 10  8  1  0  0  0  0 
 14  3  1  0  0  0  0 
 15  1  1  0  0  0  0 
 17  1  1  0  0  0  0 
 18  2  1  0  0  0  0 
 21  3  1  0  0  0  0 
 22  4  1  0  0  0  0 
 23  5  1  0  0  0  0 
 25 11  1  0  0  0  0 
 26 12  1  0  0  0  0 
M  END 
>  <HBA> 
5 
 
>  <HBD> 
2 
 
>  <TPSA> 
84.32 
 
>  <cid> 
72358 
 
>  <dipole> 
6.24 
 
>  <excitation_energy_1> 
4.435 
 
>  <excitation_energy_2> 
4.661 
 
>  <excitation_energy_3> 
4.939 
 
>  <excitation_energy_4> 
5.419 
 
>  <homo_energy> 
-6.422 
 
>  <homo_lumo_gap> 
5.113 
 
>  <logP> 
-1.189 
 
>  <lumo_energy> 
-1.309 
 
>  <melting_point> 
136.82 
 
>  <molecular_refractivity> 
49.41 
 
>  <oscillator_strength_1> 
0.0746 
 
>  <oscillator_strength_2> 
0.0013 
 
>  <oscillator_strength_3> 
0.0018 
 
>  <oscillator_strength_4> 
0.0003 
 
>  <open_babel_can_smiles> 
OCCOCn1cc(C)c(nc1=O)O 
 
>  <mulliken_charges> 
26 
1   -0.577947 
2   -0.04092 
3   -0.052693 
4   0.064154 
5   0.070365 
6   0.084508 
7   0.471666 
8   0.708365 
9   -0.511408 
10   -0.470966 
11   -0.619883 
12   -0.57379 
13   -0.516574 
14   -0.485026 
15   0.177116 
16   0.173996 
17   0.17023 
18   0.13074 
19   0.153213 
20   0.158732 
21   0.148024 
22   0.169389 
23   0.15916 
24   0.193219 
25   0.395576 
26   0.420754 
 
>  <lowdin_charges> 
26 
1   -0.448263 
2   -0.140152 
3   -0.147314 
4   -0.057773 
5   -0.069704 
6   -0.109517 
7   0.159468 
8   0.167852 
9   -0.190127 
10   -0.068673 
11   -0.469319 
12   -0.328534 
13   -0.298467 
14   -0.276916 
15   0.173168 
16   0.161735 
17   0.158663 
18   0.133307 
19   0.155214 
20   0.149132 
21   0.145807 
22   0.174291 
23   0.153846 
24   0.169613 
25   0.341942 
26   0.36072 
 
$$$$ 
 
