PCCDB-ID:  14459 
public computational chemistry database (PCCDB) project, http://pccdb.org 
 
 26 25  0  0  0  0  0  0  0  0999 V2000 
    2.6726    0.9347    2.2263 C   0  0  0  0  0  0  0  0  0  0  0  0 
    3.3792    3.3783   -3.6500 C   0  0  0  0  0  0  0  0  0  0  0  0 
    8.4213    2.3174    0.2722 C   0  0  0  0  0  0  0  0  0  0  0  0 
    3.4747    0.1853    1.1790 C   0  0  0  0  0  0  0  0  0  0  0  0 
    3.1667    2.3132   -2.5916 C   0  0  0  0  0  0  0  0  0  0  0  0 
    6.9666    2.2116   -0.1792 C   0  0  0  0  0  0  0  0  0  0  0  0 
    4.0595   -0.7147   -1.7053 O   0  0  0  0  0  0  0  0  0  0  0  0 
    3.8449    1.1307    0.1420 O   0  0  0  0  0  0  0  0  0  0  0  0 
    4.4767    1.8766   -2.1343 O   0  0  0  0  0  0  0  0  0  0  0  0 
    4.5871    0.5728   -1.1925 P   0  0  0  0  0  0  0  0  0  0  0  0 
    6.6376    0.4870   -0.7835 S   0  0  0  0  0  0  0  0  0  0  0  0 
    2.3804    0.2503    3.0304 H   0  0  0  0  0  0  0  0  0  0  0  0 
    1.7645    1.3610    1.7882 H   0  0  0  0  0  0  0  0  0  0  0  0 
    3.2617    1.7483    2.6614 H   0  0  0  0  0  0  0  0  0  0  0  0 
    2.4105    3.7414   -4.0112 H   0  0  0  0  0  0  0  0  0  0  0  0 
    3.9376    2.9729   -4.4992 H   0  0  0  0  0  0  0  0  0  0  0  0 
    3.9362    4.2273   -3.2409 H   0  0  0  0  0  0  0  0  0  0  0  0 
    8.6230    3.3357    0.6241 H   0  0  0  0  0  0  0  0  0  0  0  0 
    9.1118    2.1013   -0.5496 H   0  0  0  0  0  0  0  0  0  0  0  0 
    8.6378    1.6254    1.0926 H   0  0  0  0  0  0  0  0  0  0  0  0 
    2.8974   -0.6261    0.7264 H   0  0  0  0  0  0  0  0  0  0  0  0 
    4.3899   -0.2400    1.6088 H   0  0  0  0  0  0  0  0  0  0  0  0 
    2.6296    1.4493   -2.9968 H   0  0  0  0  0  0  0  0  0  0  0  0 
    2.6123    2.7018   -1.7310 H   0  0  0  0  0  0  0  0  0  0  0  0 
    6.7521    2.9017   -0.9982 H   0  0  0  0  0  0  0  0  0  0  0  0 
    6.2789    2.4247    0.6431 H   0  0  0  0  0  0  0  0  0  0  0  0 
  1 14  1  0  0  0  0 
  1 12  1  0  0  0  0 
  2 17  1  0  0  0  0 
  2  5  1  0  0  0  0 
  3 18  1  0  0  0  0 
  3 20  1  0  0  0  0 
  4 22  1  0  0  0  0 
  4  1  1  0  0  0  0 
  5  9  1  0  0  0  0 
  5 24  1  0  0  0  0 
  6  3  1  0  0  0  0 
  6 26  1  0  0  0  0 
  7 10  2  0  0  0  0 
  8  4  1  0  0  0  0 
  9 10  1  0  0  0  0 
 10 11  1  0  0  0  0 
 10  8  1  0  0  0  0 
 11  6  1  0  0  0  0 
 13  1  1  0  0  0  0 
 15  2  1  0  0  0  0 
 16  2  1  0  0  0  0 
 19  3  1  0  0  0  0 
 21  4  1  0  0  0  0 
 23  5  1  0  0  0  0 
 25  6  1  0  0  0  0 
M  END 
>  <HBA> 
4 
 
>  <HBD> 
0 
 
>  <TPSA> 
70.64 
 
>  <cid> 
14459 
 
>  <dipole> 
4.28 
 
>  <excitation_energy_1> 
5.491 
 
>  <excitation_energy_2> 
6.255 
 
>  <excitation_energy_3> 
6.564 
 
>  <excitation_energy_4> 
6.675 
 
>  <homo_energy> 
-6.759 
 
>  <homo_lumo_gap> 
7.146 
 
>  <logP> 
2.921 
 
>  <lumo_energy> 
0.386 
 
>  <melting_point> 
-20.06 
 
>  <molecular_refractivity> 
49.38 
 
>  <oscillator_strength_1> 
0.0034 
 
>  <oscillator_strength_2> 
0.0058 
 
>  <oscillator_strength_3> 
0.0024 
 
>  <oscillator_strength_4> 
0.009 
 
>  <open_babel_can_smiles> 
CCOP(=O)(SCC)OCC 
 
>  <mulliken_charges> 
26 
1   -0.455257 
2   -0.456016 
3   -0.455497 
4   -0.041927 
5   -0.03845 
6   -0.416997 
7   -0.544377 
8   -0.548644 
9   -0.532676 
10   1.052448 
11   -0.069689 
12   0.153809 
13   0.162209 
14   0.159323 
15   0.151934 
16   0.170513 
17   0.161009 
18   0.158913 
19   0.169623 
20   0.166723 
21   0.177028 
22   0.157885 
23   0.173033 
24   0.160831 
25   0.196742 
26   0.187508 
 
>  <lowdin_charges> 
26 
1   -0.449712 
2   -0.447993 
3   -0.445858 
4   -0.120879 
5   -0.118217 
6   -0.363877 
7   -0.57911 
8   -0.412083 
9   -0.399169 
10   0.954553 
11   -0.024807 
12   0.161128 
13   0.159447 
14   0.158466 
15   0.159474 
16   0.164131 
17   0.159354 
18   0.159224 
19   0.162349 
20   0.160786 
21   0.162718 
22   0.150992 
23   0.160414 
24   0.152497 
25   0.17012 
26   0.166053 
 
$$$$ 
 
