PCCDB-ID:  13881 
public computational chemistry database (PCCDB) project, http://pccdb.org 
 
 20 20  0  0  0  0  0  0  0  0999 V2000 
    0.9556   -1.5984    0.5981 C   0  0  0  0  0  0  0  0  0  0  0  0 
    5.7676   -3.5169    3.4590 C   0  0  0  0  0  0  0  0  0  0  0  0 
    6.1803   -2.8010    4.5826 C   0  0  0  0  0  0  0  0  0  0  0  0 
    5.2034   -2.8238    2.3906 C   0  0  0  0  0  0  0  0  0  0  0  0 
    6.0086   -1.4166    4.5822 C   0  0  0  0  0  0  0  0  0  0  0  0 
    4.4575   -0.6211    1.3675 C   0  0  0  0  0  0  0  0  0  0  0  0 
    2.4642   -1.6762    0.5631 C   0  0  0  0  0  0  0  0  0  0  0  0 
    5.0675   -1.4323    2.4889 C   0  0  0  0  0  0  0  0  0  0  0  0 
    5.4648   -0.7366    3.5660 N   0  0  0  0  0  0  0  0  0  0  0  0 
    3.1068   -2.4671   -0.0958 O   0  0  0  0  0  0  0  0  0  0  0  0 
    3.0082   -0.7232    1.3529 O   0  0  0  0  0  0  0  0  0  0  0  0 
    0.5346   -2.4978    0.1472 H   0  0  0  0  0  0  0  0  0  0  0  0 
    0.6223   -0.7215    0.0315 H   0  0  0  0  0  0  0  0  0  0  0  0 
    0.5994   -1.4811    1.6252 H   0  0  0  0  0  0  0  0  0  0  0  0 
    5.8879   -4.5960    3.4129 H   0  0  0  0  0  0  0  0  0  0  0  0 
    6.6278   -3.2988    5.4378 H   0  0  0  0  0  0  0  0  0  0  0  0 
    4.8678   -3.3346    1.4943 H   0  0  0  0  0  0  0  0  0  0  0  0 
    6.3228   -0.8215    5.4384 H   0  0  0  0  0  0  0  0  0  0  0  0 
    4.8373   -0.9337    0.3923 H   0  0  0  0  0  0  0  0  0  0  0  0 
    4.6619    0.4349    1.5430 H   0  0  0  0  0  0  0  0  0  0  0  0 
  1 14  1  0  0  0  0 
  2  3  2  0  0  0  0 
  3 16  1  0  0  0  0 
  4  8  2  0  0  0  0 
  4  2  1  0  0  0  0 
  5  3  1  0  0  0  0 
  5 18  1  0  0  0  0 
  6 20  1  0  0  0  0 
  6  8  1  0  0  0  0 
  7  1  1  0  0  0  0 
  7 11  1  0  0  0  0 
  8  9  1  0  0  0  0 
  9  5  2  0  0  0  0 
 10  7  2  0  0  0  0 
 11  6  1  0  0  0  0 
 12  1  1  0  0  0  0 
 13  1  1  0  0  0  0 
 15  2  1  0  0  0  0 
 17  4  1  0  0  0  0 
 19  6  1  0  0  0  0 
M  END 
>  <HBA> 
3 
 
>  <HBD> 
0 
 
>  <TPSA> 
39.19 
 
>  <cid> 
13881 
 
>  <dipole> 
1.31 
 
>  <excitation_energy_1> 
4.871 
 
>  <excitation_energy_2> 
5.096 
 
>  <excitation_energy_3> 
5.412 
 
>  <excitation_energy_4> 
5.774 
 
>  <homo_energy> 
-6.988 
 
>  <homo_lumo_gap> 
6.248 
 
>  <logP> 
1.145 
 
>  <lumo_energy> 
-0.74 
 
>  <melting_point> 
33.77 
 
>  <molecular_refractivity> 
40.1 
 
>  <oscillator_strength_1> 
0.0038 
 
>  <oscillator_strength_2> 
0.0003 
 
>  <oscillator_strength_3> 
0.0625 
 
>  <oscillator_strength_4> 
0.002 
 
>  <open_babel_can_smiles> 
CC(=O)OCc1ccccn1 
 
>  <mulliken_charges> 
20 
1   -0.522754 
2   -0.104901 
3   -0.13711 
4   -0.165974 
5   0.037889 
6   -0.117656 
7   0.607013 
8   0.273263 
9   -0.457642 
10   -0.474518 
11   -0.444063 
12   0.182063 
13   0.185998 
14   0.183401 
15   0.146944 
16   0.140233 
17   0.174013 
18   0.142784 
19   0.176133 
20   0.174884 
 
>  <lowdin_charges> 
20 
1   -0.464247 
2   -0.124573 
3   -0.173162 
4   -0.17257 
5   -0.089508 
6   -0.130855 
7   0.203635 
8   0.033755 
9   -0.151024 
10   -0.275523 
11   -0.191827 
12   0.176172 
13   0.181346 
14   0.176902 
15   0.163022 
16   0.166023 
17   0.180427 
18   0.158354 
19   0.165263 
20   0.168391 
 
$$$$ 
 
