PCCDB-ID:  23772 
public computational chemistry database (PCCDB) project, http://pccdb.org 
 
 26 25  0  0  0  0  0  0  0  0999 V2000 
    3.8435   -0.9185    1.7833 C   0  0  0  0  0  0  0  0  0  0  0  0 
   -1.4975   -4.3674   -0.5192 C   0  0  0  0  0  0  0  0  0  0  0  0 
    3.8726   -0.3353    0.3683 C   0  0  0  0  0  0  0  0  0  0  0  0 
   -0.1298   -4.4413   -1.2023 C   0  0  0  0  0  0  0  0  0  0  0  0 
    2.3422   -1.9979   -0.8291 C   0  0  0  0  0  0  0  0  0  0  0  0 
    1.1914   -2.6031    0.0006 C   0  0  0  0  0  0  0  0  0  0  0  0 
    1.9236    0.4015   -0.7894 N   0  0  0  0  0  0  0  0  0  0  0  0 
    1.7569   -4.9670    0.1482 N   0  0  0  0  0  0  0  0  0  0  0  0 
    2.6731   -0.6397   -0.4095 N   0  0  0  0  0  0  0  0  0  0  0  0 
    0.9706   -4.0044   -0.3443 N   0  0  0  0  0  0  0  0  0  0  0  0 
    0.9307    0.1060   -1.4558 O   0  0  0  0  0  0  0  0  0  0  0  0 
    2.6705   -4.5718    0.8754 O   0  0  0  0  0  0  0  0  0  0  0  0 
    4.7704   -0.6606    2.3072 H   0  0  0  0  0  0  0  0  0  0  0  0 
    3.7578   -2.0104    1.7696 H   0  0  0  0  0  0  0  0  0  0  0  0 
    3.0026   -0.5098    2.3536 H   0  0  0  0  0  0  0  0  0  0  0  0 
   -2.2768   -4.7054   -1.2109 H   0  0  0  0  0  0  0  0  0  0  0  0 
   -1.7444   -3.3450   -0.2133 H   0  0  0  0  0  0  0  0  0  0  0  0 
   -1.5200   -5.0085    0.3678 H   0  0  0  0  0  0  0  0  0  0  0  0 
    4.7470   -0.7104   -0.1797 H   0  0  0  0  0  0  0  0  0  0  0  0 
    3.9341    0.7559    0.3940 H   0  0  0  0  0  0  0  0  0  0  0  0 
   -0.1194   -3.8324   -2.1143 H   0  0  0  0  0  0  0  0  0  0  0  0 
    0.1049   -5.4716   -1.4823 H   0  0  0  0  0  0  0  0  0  0  0  0 
    2.0528   -1.9589   -1.8839 H   0  0  0  0  0  0  0  0  0  0  0  0 
    3.2373   -2.6113   -0.7167 H   0  0  0  0  0  0  0  0  0  0  0  0 
    0.2710   -2.0496   -0.1870 H   0  0  0  0  0  0  0  0  0  0  0  0 
    1.4343   -2.5560    1.0650 H   0  0  0  0  0  0  0  0  0  0  0  0 
  1 13  1  0  0  0  0 
  1 15  1  0  0  0  0 
  2 17  1  0  0  0  0 
  2 18  1  0  0  0  0 
  3 20  1  0  0  0  0 
  3  1  1  0  0  0  0 
  4  2  1  0  0  0  0 
  4 10  1  0  0  0  0 
  5 24  1  0  0  0  0 
  5  9  1  0  0  0  0 
  5  6  1  0  0  0  0 
  6 26  1  0  0  0  0 
  7  9  1  0  0  0  0 
  8 12  1  0  0  0  0 
  9  3  1  0  0  0  0 
 10  6  1  0  0  0  0 
 10  8  1  0  0  0  0 
 11  7  1  0  0  0  0 
 14  1  1  0  0  0  0 
 16  2  1  0  0  0  0 
 19  3  1  0  0  0  0 
 21  4  1  0  0  0  0 
 22  4  1  0  0  0  0 
 23  5  1  0  0  0  0 
 25  6  1  0  0  0  0 
M  RAD  4   7   2   8   2  11   2  12   2 
M  END 
>  <HBA> 
6 
 
>  <HBD> 
0 
 
>  <TPSA> 
65.34 
 
>  <cid> 
23772 
 
>  <dipole> 
0.56 
 
>  <excitation_energy_1> 
3.376 
 
>  <excitation_energy_2> 
3.398 
 
>  <excitation_energy_3> 
4.567 
 
>  <excitation_energy_4> 
4.66 
 
>  <homo_energy> 
-6.163 
 
>  <homo_lumo_gap> 
5.067 
 
>  <logP> 
0.993 
 
>  <lumo_energy> 
-1.097 
 
>  <melting_point> 
16.81 
 
>  <molecular_refractivity> 
46.22 
 
>  <oscillator_strength_1> 
0.0022 
 
>  <oscillator_strength_2> 
0.0 
 
>  <oscillator_strength_3> 
0.0013 
 
>  <oscillator_strength_4> 
0.0024 
 
>  <open_babel_can_smiles> 
CCN(CCN([N][O])CC)[N][O] 
 
>  <mulliken_charges> 
26 
1   -0.465637 
2   -0.450272 
3   -0.138019 
4   -0.142538 
5   -0.15267 
6   -0.160185 
7   0.149585 
8   0.152408 
9   -0.212252 
10   -0.212876 
11   -0.392844 
12   -0.394439 
13   0.157437 
14   0.185307 
15   0.159635 
16   0.159738 
17   0.161737 
18   0.167308 
19   0.158591 
20   0.179936 
21   0.165822 
22   0.180988 
23   0.180098 
24   0.185935 
25   0.190472 
26   0.186736 
 
>  <lowdin_charges> 
26 
1   -0.45759 
2   -0.45251 
3   -0.195207 
4   -0.197644 
5   -0.219061 
6   -0.221205 
7   0.051185 
8   0.051985 
9   -0.036344 
10   -0.035519 
11   -0.285015 
12   -0.286764 
13   0.161457 
14   0.164529 
15   0.157856 
16   0.162779 
17   0.155719 
18   0.161259 
19   0.151591 
20   0.165914 
21   0.155558 
22   0.167917 
23   0.1663 
24   0.171521 
25   0.172724 
26   0.168563 
 
$$$$ 
 
