PCCDB-ID:  42472 
public computational chemistry database (PCCDB) project, http://pccdb.org 
 
 37 37  0  0  1  0  0  0  0  0999 V2000 
    3.7183    1.6231   -2.5855 C   0  0  0  0  0  0  0  0  0  0  0  0 
    7.5276   -3.9706   -2.0862 C   0  0  0  0  0  0  0  0  0  0  0  0 
    3.1490   -2.0784   -0.0449 C   0  0  0  0  0  0  0  0  0  0  0  0 
    2.9200   -5.8209   -2.4503 C   0  0  0  0  0  0  0  0  0  0  0  0 
    3.7180    0.5980   -1.4459 C   0  0  0  0  0  0  0  0  0  0  0  0 
    6.6047   -2.7634   -1.8793 C   0  0  0  0  0  0  0  0  0  0  0  0 
    4.3284   -0.7464   -1.8760 C   0  0  0  0  0  0  0  0  0  0  0  0 
    4.4939   -1.7564   -0.7199 C   0  0  2  0  0  0  0  0  0  0  0  0 
    5.5684   -3.8582    0.1398 C   0  0  0  0  0  0  0  0  0  0  0  0 
    4.3977   -3.9148   -2.0788 C   0  0  0  0  0  0  0  0  0  0  0  0 
    4.1430   -5.6303   -0.3082 C   0  0  0  0  0  0  0  0  0  0  0  0 
    5.2745   -3.0823   -1.1328 C   0  0  2  0  0  0  0  0  0  0  0  0 
    5.0635   -4.9732    0.5082 N   0  0  0  0  0  0  0  0  0  0  0  0 
    3.8292   -5.0681   -1.5772 N   0  0  0  0  0  0  0  0  0  0  0  0 
    6.4480   -3.3060    0.9988 O   0  0  0  0  0  0  0  0  0  0  0  0 
    4.1920   -3.5465   -3.2273 O   0  0  0  0  0  0  0  0  0  0  0  0 
    3.6186   -6.6698    0.0339 O   0  0  0  0  0  0  0  0  0  0  0  0 
    3.2674    2.5699   -2.2682 H   0  0  0  0  0  0  0  0  0  0  0  0 
    3.1501    1.2546   -3.4480 H   0  0  0  0  0  0  0  0  0  0  0  0 
    4.7379    1.8370   -2.9288 H   0  0  0  0  0  0  0  0  0  0  0  0 
    8.4156   -3.6712   -2.6524 H   0  0  0  0  0  0  0  0  0  0  0  0 
    7.0248   -4.7584   -2.6579 H   0  0  0  0  0  0  0  0  0  0  0  0 
    7.8658   -4.4029   -1.1383 H   0  0  0  0  0  0  0  0  0  0  0  0 
    2.7196   -1.1765    0.3989 H   0  0  0  0  0  0  0  0  0  0  0  0 
    3.2532   -2.8148    0.7582 H   0  0  0  0  0  0  0  0  0  0  0  0 
    2.4248   -2.4651   -0.7714 H   0  0  0  0  0  0  0  0  0  0  0  0 
    2.3816   -5.1150   -3.0816 H   0  0  0  0  0  0  0  0  0  0  0  0 
    2.2409   -6.3916   -1.8205 H   0  0  0  0  0  0  0  0  0  0  0  0 
    3.4818   -6.5100   -3.0893 H   0  0  0  0  0  0  0  0  0  0  0  0 
    2.6887    0.4546   -1.0960 H   0  0  0  0  0  0  0  0  0  0  0  0 
    4.2802    1.0018   -0.5908 H   0  0  0  0  0  0  0  0  0  0  0  0 
    6.3322   -2.3491   -2.8516 H   0  0  0  0  0  0  0  0  0  0  0  0 
    7.1433   -1.9654   -1.3461 H   0  0  0  0  0  0  0  0  0  0  0  0 
    5.3074   -0.5385   -2.3235 H   0  0  0  0  0  0  0  0  0  0  0  0 
    3.7198   -1.1951   -2.6686 H   0  0  0  0  0  0  0  0  0  0  0  0 
    5.1328   -1.2726    0.0361 H   0  0  0  0  0  0  0  0  0  0  0  0 
    6.7942   -2.4777    0.6295 H   0  0  0  0  0  0  0  0  0  0  0  0 
  1 18  1  0  0  0  0 
  1  5  1  0  0  0  0 
  2  6  1  0  0  0  0 
  2 23  1  0  0  0  0 
  3 24  1  0  0  0  0 
  3 25  1  0  0  0  0 
  4 28  1  0  0  0  0 
  4 14  1  0  0  0  0 
  5 30  1  0  0  0  0 
  5 31  1  0  0  0  0 
  6 33  1  0  0  0  0 
  7  5  1  0  0  0  0 
  7  8  1  0  0  0  0 
  8  3  1  0  0  0  0 
  8 36  1  1  0  0  0 
  9 13  2  0  0  0  0 
  9 15  1  0  0  0  0 
 10 14  1  0  0  0  0 
 10 12  1  0  0  0  0 
 11 17  2  0  0  0  0 
 11 13  1  0  0  0  0 
 12  6  1  6  0  0  0 
 12  8  1  0  0  0  0 
 12  9  1  0  0  0  0 
 14 11  1  0  0  0  0 
 16 10  2  0  0  0  0 
 19  1  1  0  0  0  0 
 20  1  1  0  0  0  0 
 21  2  1  0  0  0  0 
 22  2  1  0  0  0  0 
 26  3  1  0  0  0  0 
 27  4  1  0  0  0  0 
 29  4  1  0  0  0  0 
 32  6  1  0  0  0  0 
 34  7  1  0  0  0  0 
 35  7  1  0  0  0  0 
 37 15  1  0  0  0  0 
M  END 
>  <HBA> 
5 
 
>  <HBD> 
1 
 
>  <TPSA> 
66.48 
 
>  <cid> 
42472 
 
>  <dipole> 
5.2 
 
>  <excitation_energy_1> 
4.48 
 
>  <excitation_energy_2> 
4.799 
 
>  <excitation_energy_3> 
5.063 
 
>  <excitation_energy_4> 
5.277 
 
>  <homo_energy> 
-7.181 
 
>  <homo_lumo_gap> 
5.75 
 
>  <logP> 
1.794 
 
>  <lumo_energy> 
-1.431 
 
>  <melting_point> 
115.04 
 
>  <molecular_refractivity> 
71.94 
 
>  <oscillator_strength_1> 
0.0006 
 
>  <oscillator_strength_2> 
0.0006 
 
>  <oscillator_strength_3> 
0.0116 
 
>  <oscillator_strength_4> 
0.0398 
 
>  <open_babel_can_smiles> 
CCC[C@H]([C@@]1(CC)C(=NC(=O)N(C1=O)C)O)C 
 
>  <mulliken_charges> 
37 
1   -0.444098 
2   -0.469864 
3   -0.485335 
4   -0.319442 
5   -0.259826 
6   -0.29915 
7   -0.259735 
8   -0.091593 
9   0.543426 
10   0.636873 
11   0.70219 
12   -0.113082 
13   -0.493464 
14   -0.51145 
15   -0.570836 
16   -0.515273 
17   -0.465826 
18   0.146348 
19   0.149936 
20   0.14251 
21   0.159974 
22   0.167999 
23   0.166744 
24   0.164358 
25   0.169563 
26   0.161989 
27   0.183616 
28   0.197135 
29   0.174697 
30   0.142729 
31   0.12744 
32   0.198377 
33   0.123091 
34   0.133079 
35   0.170567 
36   0.112622 
37   0.423712 
 
>  <lowdin_charges> 
37 
1   -0.443101 
2   -0.455597 
3   -0.459183 
4   -0.355541 
5   -0.274125 
6   -0.275831 
7   -0.284579 
8   -0.113407 
9   0.161125 
10   0.163584 
11   0.183835 
12   -0.054784 
13   -0.185719 
14   -0.089278 
15   -0.319881 
16   -0.281263 
17   -0.244999 
18   0.15194 
19   0.151572 
20   0.145914 
21   0.161757 
22   0.161358 
23   0.157841 
24   0.162307 
25   0.162147 
26   0.158375 
27   0.174384 
28   0.182354 
29   0.164635 
30   0.143085 
31   0.137411 
32   0.176311 
33   0.136378 
34   0.144089 
35   0.161708 
36   0.133544 
37   0.361635 
 
$$$$ 
 
