PCCDB-ID:  21019 
public computational chemistry database (PCCDB) project, http://pccdb.org 
 
 24 23  0  0  1  0  0  0  0  0999 V2000 
    1.2529    0.4296    0.0258 C   0  0  0  0  0  0  0  0  0  0  0  0 
    2.5211   -2.4477    0.6178 C   0  0  0  0  0  0  0  0  0  0  0  0 
    5.3273   -2.1311    1.7385 C   0  0  0  0  0  0  0  0  0  0  0  0 
    5.2997   -1.6037   -0.7281 C   0  0  0  0  0  0  0  0  0  0  0  0 
    2.6616   -0.0777   -0.3072 C   0  0  0  0  0  0  0  0  0  0  0  0 
    3.2245   -1.0847    0.7215 C   0  0  2  0  0  0  0  0  0  0  0  0 
    4.7764   -1.1875    0.6563 C   0  0  0  0  0  0  0  0  0  0  0  0 
    5.2297    0.1492    0.9531 O   0  0  0  0  0  0  0  0  0  0  0  0 
    0.9217    1.1698   -0.7119 H   0  0  0  0  0  0  0  0  0  0  0  0 
    1.2319    0.9119    1.0109 H   0  0  0  0  0  0  0  0  0  0  0  0 
    0.5095   -0.3757    0.0347 H   0  0  0  0  0  0  0  0  0  0  0  0 
    1.4363   -2.3271    0.7021 H   0  0  0  0  0  0  0  0  0  0  0  0 
    2.8298   -3.1362    1.4106 H   0  0  0  0  0  0  0  0  0  0  0  0 
    2.7195   -2.9315   -0.3466 H   0  0  0  0  0  0  0  0  0  0  0  0 
    5.0856   -3.1803    1.5405 H   0  0  0  0  0  0  0  0  0  0  0  0 
    4.9326   -1.8596    2.7237 H   0  0  0  0  0  0  0  0  0  0  0  0 
    6.4216   -2.0517    1.7811 H   0  0  0  0  0  0  0  0  0  0  0  0 
    4.9401   -2.5961   -1.0207 H   0  0  0  0  0  0  0  0  0  0  0  0 
    6.3972   -1.6460   -0.7199 H   0  0  0  0  0  0  0  0  0  0  0  0 
    4.9972   -0.8838   -1.4937 H   0  0  0  0  0  0  0  0  0  0  0  0 
    3.3418    0.7779   -0.3606 H   0  0  0  0  0  0  0  0  0  0  0  0 
    2.6507   -0.5386   -1.3052 H   0  0  0  0  0  0  0  0  0  0  0  0 
    3.0188   -0.6730    1.7209 H   0  0  0  0  0  0  0  0  0  0  0  0 
    6.1983    0.1455    0.8926 H   0  0  0  0  0  0  0  0  0  0  0  0 
  1 11  1  0  0  0  0 
  1 10  1  0  0  0  0 
  2 12  1  0  0  0  0 
  2  6  1  0  0  0  0 
  2 13  1  0  0  0  0 
  3 17  1  0  0  0  0 
  3 16  1  0  0  0  0 
  4 19  1  0  0  0  0 
  4  7  1  0  0  0  0 
  5  1  1  0  0  0  0 
  5  6  1  0  0  0  0 
  6 23  1  1  0  0  0 
  7  6  1  0  0  0  0 
  7  8  1  0  0  0  0 
  7  3  1  0  0  0  0 
  9  1  1  0  0  0  0 
 14  2  1  0  0  0  0 
 15  3  1  0  0  0  0 
 18  4  1  0  0  0  0 
 20  4  1  0  0  0  0 
 21  5  1  0  0  0  0 
 22  5  1  0  0  0  0 
 24  8  1  0  0  0  0 
M  END 
>  <HBA> 
1 
 
>  <HBD> 
1 
 
>  <TPSA> 
20.23 
 
>  <cid> 
21019 
 
>  <dipole> 
1.45 
 
>  <excitation_energy_1> 
6.403 
 
>  <excitation_energy_2> 
7.117 
 
>  <excitation_energy_3> 
7.373 
 
>  <excitation_energy_4> 
7.435 
 
>  <homo_energy> 
-7.029 
 
>  <homo_lumo_gap> 
8.879 
 
>  <logP> 
1.803 
 
>  <lumo_energy> 
1.85 
 
>  <melting_point> 
2.41 
 
>  <molecular_refractivity> 
36.96 
 
>  <oscillator_strength_1> 
0.0196 
 
>  <oscillator_strength_2> 
0.0043 
 
>  <oscillator_strength_3> 
0.0024 
 
>  <oscillator_strength_4> 
0.0007 
 
>  <open_babel_can_smiles> 
CC[C@H](C(O)(C)C)C 
 
>  <mulliken_charges> 
24 
1   -0.45112 
2   -0.466899 
3   -0.459083 
4   -0.469202 
5   -0.264248 
6   -0.062036 
7   0.310134 
8   -0.64303 
9   0.140506 
10   0.14411 
11   0.139795 
12   0.148294 
13   0.144648 
14   0.140263 
15   0.144554 
16   0.152581 
17   0.125411 
18   0.145162 
19   0.126949 
20   0.160432 
21   0.16136 
22   0.12212 
23   0.127396 
24   0.381904 
 
>  <lowdin_charges> 
24 
1   -0.4464 
2   -0.449106 
3   -0.452508 
4   -0.459484 
5   -0.279447 
6   -0.12724 
7   0.122713 
8   -0.462686 
9   0.150095 
10   0.146684 
11   0.143896 
12   0.15094 
13   0.150504 
14   0.144932 
15   0.150318 
16   0.154815 
17   0.140812 
18   0.152277 
19   0.141242 
20   0.159279 
21   0.156674 
22   0.134208 
23   0.142575 
24   0.334909 
 
$$$$ 
 
