PCCDB-ID:  56222 
public computational chemistry database (PCCDB) project, http://pccdb.org 
 
 25 26  0  0  0  0  0  0  0  0999 V2000 
    2.3497    1.0318   -0.2473 C   0  0  0  0  0  0  0  0  0  0  0  0 
    2.4069   -0.3603   -0.3538 C   0  0  0  0  0  0  0  0  0  0  0  0 
    1.1150    1.6631   -0.1218 C   0  0  0  0  0  0  0  0  0  0  0  0 
    1.2284   -1.1016   -0.3342 C   0  0  0  0  0  0  0  0  0  0  0  0 
   -1.4143    1.6152    0.0609 C   0  0  0  0  0  0  0  0  0  0  0  0 
   -3.6580   -2.5788    0.9483 C   0  0  0  0  0  0  0  0  0  0  0  0 
   -2.5716    0.7243   -0.3901 C   0  0  0  0  0  0  0  0  0  0  0  0 
   -3.6700   -1.3703    0.1060 C   0  0  0  0  0  0  0  0  0  0  0  0 
   -1.2776   -1.3113   -0.2313 C   0  0  0  0  0  0  0  0  0  0  0  0 
   -0.0760    0.9254   -0.1000 C   0  0  0  0  0  0  0  0  0  0  0  0 
   -0.0160   -0.4714   -0.2077 C   0  0  0  0  0  0  0  0  0  0  0  0 
   -3.6547   -3.5413    1.5961 N   0  0  0  0  0  0  0  0  0  0  0  0 
   -2.4526   -0.5844    0.2570 N   0  0  0  0  0  0  0  0  0  0  0  0 
    3.2628    1.6207   -0.2636 H   0  0  0  0  0  0  0  0  0  0  0  0 
    3.3646   -0.8645   -0.4492 H   0  0  0  0  0  0  0  0  0  0  0  0 
    1.0671    2.7471   -0.0394 H   0  0  0  0  0  0  0  0  0  0  0  0 
    1.2702   -2.1860   -0.4153 H   0  0  0  0  0  0  0  0  0  0  0  0 
   -1.5680    1.8768    1.1166 H   0  0  0  0  0  0  0  0  0  0  0  0 
   -1.4297    2.5551   -0.5049 H   0  0  0  0  0  0  0  0  0  0  0  0 
   -2.5780    0.6339   -1.4947 H   0  0  0  0  0  0  0  0  0  0  0  0 
   -3.5259    1.1753   -0.0957 H   0  0  0  0  0  0  0  0  0  0  0  0 
   -4.5268   -0.7575    0.4094 H   0  0  0  0  0  0  0  0  0  0  0  0 
   -3.8559   -1.6911   -0.9394 H   0  0  0  0  0  0  0  0  0  0  0  0 
   -1.1399   -2.2020    0.3923 H   0  0  0  0  0  0  0  0  0  0  0  0 
   -1.4472   -1.6767   -1.2671 H   0  0  0  0  0  0  0  0  0  0  0  0 
  1  3  2  0  0  0  0 
  2  4  2  0  0  0  0 
  2  1  1  0  0  0  0 
  3 10  1  0  0  0  0 
  3 16  1  0  0  0  0 
  4 11  1  0  0  0  0 
  5 18  1  0  0  0  0 
  6 12  3  0  0  0  0 
  7 21  1  0  0  0  0 
  7  5  1  0  0  0  0 
  7 13  1  0  0  0  0 
  8 13  1  0  0  0  0 
  8 22  1  0  0  0  0 
  8  6  1  0  0  0  0 
  9 11  1  0  0  0  0 
  9 13  1  0  0  0  0 
  9 24  1  0  0  0  0 
 10  5  1  0  0  0  0 
 11 10  2  0  0  0  0 
 14  1  1  0  0  0  0 
 15  2  1  0  0  0  0 
 17  4  1  0  0  0  0 
 19  5  1  0  0  0  0 
 20  7  1  0  0  0  0 
 23  8  1  0  0  0  0 
 25  9  1  0  0  0  0 
M  END 
>  <HBA> 
2 
 
>  <HBD> 
0 
 
>  <TPSA> 
27.03 
 
>  <cid> 
56222 
 
>  <dipole> 
4.12 
 
>  <excitation_energy_1> 
5.156 
 
>  <excitation_energy_2> 
5.407 
 
>  <excitation_energy_3> 
5.457 
 
>  <excitation_energy_4> 
5.708 
 
>  <homo_energy> 
-6.397 
 
>  <homo_lumo_gap> 
6.242 
 
>  <logP> 
1.506 
 
>  <lumo_energy> 
-0.155 
 
>  <melting_point> 
69.11 
 
>  <molecular_refractivity> 
55.24 
 
>  <oscillator_strength_1> 
0.0017 
 
>  <oscillator_strength_2> 
0.0057 
 
>  <oscillator_strength_3> 
0.0334 
 
>  <oscillator_strength_4> 
0.0195 
 
>  <open_babel_can_smiles> 
N#CCN1CCc2c(C1)cccc2 
 
>  <mulliken_charges> 
25 
1   -0.126911 
2   -0.131917 
3   -0.191068 
4   -0.180237 
5   -0.334412 
6   0.363039 
7   -0.13862 
8   -0.173017 
9   -0.199929 
10   0.127642 
11   0.100034 
12   -0.474252 
13   -0.403163 
14   0.129349 
15   0.130505 
16   0.123054 
17   0.126992 
18   0.168109 
19   0.146445 
20   0.125002 
21   0.142432 
22   0.194005 
23   0.165206 
24   0.181071 
25   0.13064 
 
>  <lowdin_charges> 
25 
1   -0.157495 
2   -0.157024 
3   -0.159757 
4   -0.157803 
5   -0.274667 
6   -0.016018 
7   -0.195098 
8   -0.194376 
9   -0.200553 
10   -0.012585 
11   -0.018196 
12   -0.117287 
13   -0.176391 
14   0.158499 
15   0.158605 
16   0.152798 
17   0.154735 
18   0.16054 
19   0.154442 
20   0.120623 
21   0.148759 
22   0.181788 
23   0.1513 
24   0.167573 
25   0.127586 
 
$$$$ 
 
