PCCDB-ID:  70449 
public computational chemistry database (PCCDB) project, http://pccdb.org 
 
 28 27  0  0  0  0  0  0  0  0999 V2000 
    2.6917   -2.2364   -0.1709 C   0  0  0  0  0  0  0  0  0  0  0  0 
    5.5084    2.8353   -7.9515 C   0  0  0  0  0  0  0  0  0  0  0  0 
    6.9772    0.6132   -2.1893 C   0  0  0  0  0  0  0  0  0  0  0  0 
    3.4359   -0.9794   -0.6388 C   0  0  0  0  0  0  0  0  0  0  0  0 
    5.5750    1.3248   -7.7038 C   0  0  0  0  0  0  0  0  0  0  0  0 
    3.0714   -0.6096   -2.0767 C   0  0  0  0  0  0  0  0  0  0  0  0 
    5.0969    0.8860   -6.3171 C   0  0  0  0  0  0  0  0  0  0  0  0 
    5.6150   -1.2371   -3.8093 O   0  0  0  0  0  0  0  0  0  0  0  0 
    5.6971    0.2122   -3.4327 P   0  0  0  0  0  0  0  0  0  0  0  0 
    3.8404    0.9640   -2.6869 S   0  0  0  0  0  0  0  0  0  0  0  0 
    6.2102    1.5569   -4.9875 S   0  0  0  0  0  0  0  0  0  0  0  0 
    2.9645   -2.4917    0.8590 H   0  0  0  0  0  0  0  0  0  0  0  0 
    2.9314   -3.0986   -0.8041 H   0  0  0  0  0  0  0  0  0  0  0  0 
    1.6050   -2.0906   -0.2016 H   0  0  0  0  0  0  0  0  0  0  0  0 
    5.7973    3.0728   -8.9812 H   0  0  0  0  0  0  0  0  0  0  0  0 
    6.1805    3.3847   -7.2828 H   0  0  0  0  0  0  0  0  0  0  0  0 
    4.4932    3.2174   -7.7902 H   0  0  0  0  0  0  0  0  0  0  0  0 
    6.7689    0.0388   -1.2821 H   0  0  0  0  0  0  0  0  0  0  0  0 
    6.9688    1.6801   -1.9489 H   0  0  0  0  0  0  0  0  0  0  0  0 
    7.9576    0.3268   -2.5813 H   0  0  0  0  0  0  0  0  0  0  0  0 
    4.5179   -1.1490   -0.5721 H   0  0  0  0  0  0  0  0  0  0  0  0 
    3.2083   -0.1373    0.0262 H   0  0  0  0  0  0  0  0  0  0  0  0 
    6.5958    0.9589   -7.8685 H   0  0  0  0  0  0  0  0  0  0  0  0 
    4.9372    0.8081   -8.4343 H   0  0  0  0  0  0  0  0  0  0  0  0 
    1.9943   -0.4375   -2.1769 H   0  0  0  0  0  0  0  0  0  0  0  0 
    3.3577   -1.3989   -2.7774 H   0  0  0  0  0  0  0  0  0  0  0  0 
    5.1130   -0.2027   -6.2232 H   0  0  0  0  0  0  0  0  0  0  0  0 
    4.0816    1.2430   -6.1193 H   0  0  0  0  0  0  0  0  0  0  0  0 
  1 12  1  0  0  0  0 
  2 17  1  0  0  0  0 
  2  5  1  0  0  0  0 
  2 16  1  0  0  0  0 
  3 19  1  0  0  0  0 
  3 18  1  0  0  0  0 
  4 21  1  0  0  0  0 
  4  1  1  0  0  0  0 
  4 22  1  0  0  0  0 
  5  7  1  0  0  0  0 
  6  4  1  0  0  0  0 
  7 27  1  0  0  0  0 
  7 28  1  0  0  0  0 
  7 11  1  0  0  0  0 
  8  9  2  0  0  0  0 
  9 10  1  0  0  0  0 
  9  3  1  0  0  0  0 
 10  6  1  0  0  0  0 
 11  9  1  0  0  0  0 
 13  1  1  0  0  0  0 
 14  1  1  0  0  0  0 
 15  2  1  0  0  0  0 
 20  3  1  0  0  0  0 
 23  5  1  0  0  0  0 
 24  5  1  0  0  0  0 
 25  6  1  0  0  0  0 
 26  6  1  0  0  0  0 
M  END 
>  <HBA> 
3 
 
>  <HBD> 
0 
 
>  <TPSA> 
77.48 
 
>  <cid> 
70449 
 
>  <dipole> 
0.97 
 
>  <excitation_energy_1> 
4.986 
 
>  <excitation_energy_2> 
5.176 
 
>  <excitation_energy_3> 
5.721 
 
>  <excitation_energy_4> 
5.926 
 
>  <homo_energy> 
-6.604 
 
>  <homo_lumo_gap> 
6.289 
 
>  <logP> 
4.096 
 
>  <lumo_energy> 
-0.316 
 
>  <melting_point> 
1.45 
 
>  <molecular_refractivity> 
59.61 
 
>  <oscillator_strength_1> 
0.0096 
 
>  <oscillator_strength_2> 
0.007 
 
>  <oscillator_strength_3> 
0.0113 
 
>  <oscillator_strength_4> 
0.0085 
 
>  <open_babel_can_smiles> 
CCCSP(=O)(SCCC)C 
 
>  <mulliken_charges> 
28 
1   -0.448575 
2   -0.448628 
3   -0.655545 
4   -0.246399 
5   -0.261101 
6   -0.430585 
7   -0.423692 
8   -0.549401 
9   0.66591 
10   -0.06583 
11   -0.065825 
12   0.15084 
13   0.155124 
14   0.145741 
15   0.148945 
16   0.167019 
17   0.148201 
18   0.201424 
19   0.198692 
20   0.204734 
21   0.150172 
22   0.149501 
23   0.15867 
24   0.150053 
25   0.176644 
26   0.219874 
27   0.214149 
28   0.189891 
 
>  <lowdin_charges> 
28 
1   -0.442957 
2   -0.44695 
3   -0.622873 
4   -0.274925 
5   -0.272742 
6   -0.367725 
7   -0.358131 
8   -0.599986 
9   0.724007 
10   -0.06401 
11   -0.055667 
12   0.153757 
13   0.153885 
14   0.146758 
15   0.152843 
16   0.159118 
17   0.149573 
18   0.190094 
19   0.189314 
20   0.192555 
21   0.144663 
22   0.149614 
23   0.152873 
24   0.154214 
25   0.165011 
26   0.18367 
27   0.179072 
28   0.164944 
 
$$$$ 
 
