PCCDB-ID:  23874 
public computational chemistry database (PCCDB) project, http://pccdb.org 
 
 31 31  0  0  0  0  0  0  0  0999 V2000 
    4.6901    3.5003    0.3415 C   0  0  0  0  0  0  0  0  0  0  0  0 
    8.7180   -2.5431    0.7211 C   0  0  0  0  0  0  0  0  0  0  0  0 
    4.5585   -4.9072    1.5513 C   0  0  0  0  0  0  0  0  0  0  0  0 
    4.3220    2.0147    0.2688 C   0  0  0  0  0  0  0  0  0  0  0  0 
    5.0944    1.1605    1.2835 C   0  0  0  0  0  0  0  0  0  0  0  0 
    4.7044   -0.3201    1.2095 C   0  0  0  0  0  0  0  0  0  0  0  0 
    5.4494   -1.2371    2.2345 C   0  0  0  0  0  0  0  0  0  0  0  0 
    6.9246   -1.3224    1.9026 C   0  0  0  0  0  0  0  0  0  0  0  0 
    4.7123   -2.5610    2.3118 C   0  0  0  0  0  0  0  0  0  0  0  0 
    6.5666   -3.6244    1.0664 C   0  0  0  0  0  0  0  0  0  0  0  0 
    7.3371   -2.4654    1.2169 N   0  0  0  0  0  0  0  0  0  0  0  0 
    5.2886   -3.6351    1.6362 N   0  0  0  0  0  0  0  0  0  0  0  0 
    7.6987   -0.4165    2.1587 O   0  0  0  0  0  0  0  0  0  0  0  0 
    3.6381   -2.6557    2.8783 O   0  0  0  0  0  0  0  0  0  0  0  0 
    7.0036   -4.6012    0.4855 O   0  0  0  0  0  0  0  0  0  0  0  0 
    4.1277    4.0865   -0.3937 H   0  0  0  0  0  0  0  0  0  0  0  0 
    5.7582    3.6531    0.1456 H   0  0  0  0  0  0  0  0  0  0  0  0 
    4.4739    3.9136    1.3341 H   0  0  0  0  0  0  0  0  0  0  0  0 
    9.1453   -1.5452    0.7917 H   0  0  0  0  0  0  0  0  0  0  0  0 
    8.7112   -2.8959   -0.3107 H   0  0  0  0  0  0  0  0  0  0  0  0 
    9.3028   -3.2409    1.3267 H   0  0  0  0  0  0  0  0  0  0  0  0 
    3.5921   -4.7557    2.0273 H   0  0  0  0  0  0  0  0  0  0  0  0 
    5.1151   -5.6952    2.0638 H   0  0  0  0  0  0  0  0  0  0  0  0 
    4.4347   -5.1916    0.5046 H   0  0  0  0  0  0  0  0  0  0  0  0 
    4.5162    1.6392   -0.7461 H   0  0  0  0  0  0  0  0  0  0  0  0 
    3.2422    1.8953    0.4366 H   0  0  0  0  0  0  0  0  0  0  0  0 
    4.8961    1.5318    2.2990 H   0  0  0  0  0  0  0  0  0  0  0  0 
    6.1722    1.2757    1.1234 H   0  0  0  0  0  0  0  0  0  0  0  0 
    4.8735   -0.7076    0.1953 H   0  0  0  0  0  0  0  0  0  0  0  0 
    3.6343   -0.4308    1.4190 H   0  0  0  0  0  0  0  0  0  0  0  0 
    5.3658   -0.7700    3.2203 H   0  0  0  0  0  0  0  0  0  0  0  0 
  1 18  1  0  0  0  0 
  2 19  1  0  0  0  0 
  2 11  1  0  0  0  0 
  2 21  1  0  0  0  0 
  3 12  1  0  0  0  0 
  3 22  1  0  0  0  0 
  3 23  1  0  0  0  0 
  4  1  1  0  0  0  0 
  4 26  1  0  0  0  0 
  4  5  1  0  0  0  0 
  5 27  1  0  0  0  0 
  6  5  1  0  0  0  0 
  6 30  1  0  0  0  0 
  6  7  1  0  0  0  0 
  7  9  1  0  0  0  0 
  7 31  1  0  0  0  0 
  8 13  2  0  0  0  0 
  8  7  1  0  0  0  0 
  9 14  2  0  0  0  0 
 10 11  1  0  0  0  0 
 10 12  1  0  0  0  0 
 11  8  1  0  0  0  0 
 12  9  1  0  0  0  0 
 15 10  2  0  0  0  0 
 16  1  1  0  0  0  0 
 17  1  1  0  0  0  0 
 20  2  1  0  0  0  0 
 24  3  1  0  0  0  0 
 25  4  1  0  0  0  0 
 28  5  1  0  0  0  0 
 29  6  1  0  0  0  0 
M  END 
>  <HBA> 
5 
 
>  <HBD> 
0 
 
>  <TPSA> 
57.69 
 
>  <cid> 
23874 
 
>  <dipole> 
1.14 
 
>  <excitation_energy_1> 
4.584 
 
>  <excitation_energy_2> 
5.23 
 
>  <excitation_energy_3> 
5.51 
 
>  <excitation_energy_4> 
5.729 
 
>  <homo_energy> 
-7.102 
 
>  <homo_lumo_gap> 
5.913 
 
>  <logP> 
0.719 
 
>  <lumo_energy> 
-1.189 
 
>  <melting_point> 
73.14 
 
>  <molecular_refractivity> 
62.68 
 
>  <oscillator_strength_1> 
0.0003 
 
>  <oscillator_strength_2> 
0.0119 
 
>  <oscillator_strength_3> 
0.077 
 
>  <oscillator_strength_4> 
0.0008 
 
>  <open_babel_can_smiles> 
CCCCC1C(=O)N(C)C(=O)N(C1=O)C 
 
>  <mulliken_charges> 
31 
1   -0.442603 
2   -0.320137 
3   -0.321879 
4   -0.251965 
5   -0.256497 
6   -0.275595 
7   -0.292007 
8   0.616471 
9   0.612111 
10   0.790975 
11   -0.524746 
12   -0.525443 
13   -0.483616 
14   -0.487299 
15   -0.495701 
16   0.144418 
17   0.146572 
18   0.145079 
19   0.199302 
20   0.186598 
21   0.180605 
22   0.202824 
23   0.182374 
24   0.183698 
25   0.13175 
26   0.1339 
27   0.137627 
28   0.164819 
29   0.143022 
30   0.174349 
31   0.200996 
 
>  <lowdin_charges> 
31 
1   -0.442825 
2   -0.347126 
3   -0.348228 
4   -0.269134 
5   -0.276287 
6   -0.25749 
7   -0.171974 
8   0.171166 
9   0.165491 
10   0.195785 
11   -0.089411 
12   -0.086404 
13   -0.265107 
14   -0.265359 
15   -0.277229 
16   0.152268 
17   0.147535 
18   0.147971 
19   0.181944 
20   0.171847 
21   0.168233 
22   0.183919 
23   0.169921 
24   0.169145 
25   0.138609 
26   0.138235 
27   0.143474 
28   0.154398 
29   0.145117 
30   0.161629 
31   0.189887 
 
$$$$ 
 
