PCCDB-ID:  11803 
public computational chemistry database (PCCDB) project, http://pccdb.org 
 
 22 23  0  0  0  0  0  0  0  0999 V2000 
    2.4743   -0.5735    0.0736 C   0  0  0  0  0  0  0  0  0  0  0  0 
   -2.4851    0.5735    0.1198 C   0  0  0  0  0  0  0  0  0  0  0  0 
    1.3274   -1.3333    0.0767 C   0  0  0  0  0  0  0  0  0  0  0  0 
   -1.3397    1.3305    0.0313 C   0  0  0  0  0  0  0  0  0  0  0  0 
    2.4033    0.8294    0.0236 C   0  0  0  0  0  0  0  0  0  0  0  0 
   -2.4142   -0.8296    0.1640 C   0  0  0  0  0  0  0  0  0  0  0  0 
    0.0429   -0.7225    0.0442 C   0  0  0  0  0  0  0  0  0  0  0  0 
   -0.0562    0.7174   -0.0036 C   0  0  0  0  0  0  0  0  0  0  0  0 
    1.1751    1.4481   -0.0306 C   0  0  0  0  0  0  0  0  0  0  0  0 
   -1.1877   -1.4519    0.1101 C   0  0  0  0  0  0  0  0  0  0  0  0 
    1.2137    2.9211   -0.1234 N   0  0  0  0  0  0  0  0  0  0  0  0 
   -1.2276   -2.9277    0.1207 N   0  0  0  0  0  0  0  0  0  0  0  0 
    2.1877    3.4891    0.3679 O   0  0  0  0  0  0  0  0  0  0  0  0 
    0.2987    3.5003   -0.7113 O   0  0  0  0  0  0  0  0  0  0  0  0 
   -2.1826   -3.4594    0.6847 O   0  0  0  0  0  0  0  0  0  0  0  0 
   -0.3334   -3.5470   -0.4585 O   0  0  0  0  0  0  0  0  0  0  0  0 
    3.4448   -1.0583    0.1059 H   0  0  0  0  0  0  0  0  0  0  0  0 
   -3.4545    1.0605    0.1520 H   0  0  0  0  0  0  0  0  0  0  0  0 
    1.3957   -2.4107    0.1058 H   0  0  0  0  0  0  0  0  0  0  0  0 
   -1.4083    2.4074   -0.0111 H   0  0  0  0  0  0  0  0  0  0  0  0 
    3.2996    1.4372    0.0218 H   0  0  0  0  0  0  0  0  0  0  0  0 
   -3.3093   -1.4349    0.2350 H   0  0  0  0  0  0  0  0  0  0  0  0 
  1  3  1  0  0  0  0 
  1 17  1  0  0  0  0 
  2 18  1  0  0  0  0 
  2  6  1  0  0  0  0 
  3 19  1  0  0  0  0 
  4  2  2  0  0  0  0 
  5  1  2  0  0  0  0 
  6 22  1  0  0  0  0 
  7  3  2  0  0  0  0 
  7 10  1  0  0  0  0 
  8  4  1  0  0  0  0 
  8  7  1  0  0  0  0 
  9  8  2  0  0  0  0 
  9  5  1  0  0  0  0 
 10 12  1  0  0  0  0 
 10  6  2  0  0  0  0 
 11  9  1  0  0  0  0 
 11 13  2  0  0  0  0 
 12 15  2  0  0  0  0 
 14 11  2  0  0  0  0 
 16 12  2  0  0  0  0 
 20  4  1  0  0  0  0 
 21  5  1  0  0  0  0 
M  END 
>  <HBA> 
0 
 
>  <HBD> 
0 
 
>  <TPSA> 
91.64 
 
>  <cid> 
11803 
 
>  <dipole> 
0.32 
 
>  <excitation_energy_1> 
3.404 
 
>  <excitation_energy_2> 
3.625 
 
>  <excitation_energy_3> 
3.743 
 
>  <excitation_energy_4> 
3.864 
 
>  <homo_energy> 
-7.102 
 
>  <homo_lumo_gap> 
3.997 
 
>  <logP> 
3.703 
 
>  <lumo_energy> 
-3.105 
 
>  <melting_point> 
127.25 
 
>  <molecular_refractivity> 
61.59 
 
>  <oscillator_strength_1> 
0.1621 
 
>  <oscillator_strength_2> 
0.0 
 
>  <oscillator_strength_3> 
0.0211 
 
>  <oscillator_strength_4> 
0.0002 
 
>  <open_babel_can_smiles> 
O=N(=O)c1cccc2c1cccc2N(=O)=O 
 
>  <mulliken_charges> 
22 
1   -0.147808 
2   -0.147907 
3   -0.147542 
4   -0.147368 
5   -0.135114 
6   -0.135004 
7   0.09512 
8   0.094989 
9   0.199854 
10   0.199942 
11   0.352121 
12   0.351848 
13   -0.375389 
14   -0.386354 
15   -0.375325 
16   -0.386231 
17   0.161237 
18   0.161236 
19   0.193239 
20   0.19325 
21   0.19062 
22   0.190585 
 
>  <lowdin_charges> 
22 
1   -0.143993 
2   -0.144005 
3   -0.127899 
4   -0.127924 
5   -0.126104 
6   -0.126123 
7   0.00749 
8   0.007502 
9   0.008377 
10   0.008446 
11   0.30968 
12   0.309839 
13   -0.23777 
14   -0.244484 
15   -0.237816 
16   -0.244611 
17   0.17456 
18   0.174569 
19   0.188369 
20   0.188383 
21   0.191762 
22   0.191754 
 
$$$$ 
 
