PCCDB-ID:  15320 
public computational chemistry database (PCCDB) project, http://pccdb.org 
 
 24 24  0  0  0  0  0  0  0  0999 V2000 
    0.4840    1.8493   -0.1854 C   0  0  0  0  0  0  0  0  0  0  0  0 
    1.5758    0.8144    0.1203 C   0  0  0  0  0  0  0  0  0  0  0  0 
   -0.8861    1.3785    0.3216 C   0  0  0  0  0  0  0  0  0  0  0  0 
    1.2288   -0.5769   -0.4572 C   0  0  0  0  0  0  0  0  0  0  0  0 
   -1.2528    0.0005   -0.2658 C   0  0  0  0  0  0  0  0  0  0  0  0 
   -0.1585   -1.0150   -0.0302 C   0  0  0  0  0  0  0  0  0  0  0  0 
    0.0223   -4.2456    1.4134 C   0  0  0  0  0  0  0  0  0  0  0  0 
   -1.1324   -4.5979    1.8087 N   0  0  0  0  0  0  0  0  0  0  0  0 
   -0.5040   -2.1332    0.5006 N   0  0  0  0  0  0  0  0  0  0  0  0 
    0.4155   -3.1118    0.7191 N   0  0  0  0  0  0  0  0  0  0  0  0 
    1.1167   -5.0255    1.6261 O   0  0  0  0  0  0  0  0  0  0  0  0 
    0.4335    2.0154   -1.2718 H   0  0  0  0  0  0  0  0  0  0  0  0 
    0.7473    2.8138    0.2662 H   0  0  0  0  0  0  0  0  0  0  0  0 
    1.6983    0.7268    1.2086 H   0  0  0  0  0  0  0  0  0  0  0  0 
    2.5421    1.1439   -0.2807 H   0  0  0  0  0  0  0  0  0  0  0  0 
   -1.6626    2.1092    0.0643 H   0  0  0  0  0  0  0  0  0  0  0  0 
   -0.8663    1.3087    1.4181 H   0  0  0  0  0  0  0  0  0  0  0  0 
    2.0087   -1.2930   -0.1762 H   0  0  0  0  0  0  0  0  0  0  0  0 
    1.2468   -0.5213   -1.5564 H   0  0  0  0  0  0  0  0  0  0  0  0 
   -1.4036    0.1135   -1.3517 H   0  0  0  0  0  0  0  0  0  0  0  0 
   -2.1880   -0.3803    0.1547 H   0  0  0  0  0  0  0  0  0  0  0  0 
   -1.8176   -3.8836    1.5610 H   0  0  0  0  0  0  0  0  0  0  0  0 
    1.4109   -2.9586    0.6003 H   0  0  0  0  0  0  0  0  0  0  0  0 
    0.7755   -5.8051    2.0978 H   0  0  0  0  0  0  0  0  0  0  0  0 
  1  2  1  0  0  0  0 
  1 13  1  0  0  0  0 
  1  3  1  0  0  0  0 
  2 14  1  0  0  0  0 
  3 17  1  0  0  0  0 
  4 18  1  0  0  0  0 
  4  6  1  0  0  0  0 
  4  2  1  0  0  0  0 
  5  6  1  0  0  0  0 
  5 21  1  0  0  0  0 
  5  3  1  0  0  0  0 
  6  9  2  0  0  0  0 
  7 11  1  0  0  0  0 
  7  8  2  0  0  0  0 
  9 10  1  0  0  0  0 
 10  7  1  0  0  0  0 
 11 24  1  0  0  0  0 
 12  1  1  0  0  0  0 
 15  2  1  0  0  0  0 
 16  3  1  0  0  0  0 
 19  4  1  0  0  0  0 
 20  5  1  0  0  0  0 
 22  8  1  0  0  0  0 
 23 10  1  0  0  0  0 
M  END 
>  <HBA> 
4 
 
>  <HBD> 
2 
 
>  <TPSA> 
67.48 
 
>  <cid> 
15320 
 
>  <dipole> 
3.99 
 
>  <excitation_energy_1> 
5.087 
 
>  <excitation_energy_2> 
5.378 
 
>  <excitation_energy_3> 
5.885 
 
>  <excitation_energy_4> 
5.889 
 
>  <homo_energy> 
-5.878 
 
>  <homo_lumo_gap> 
5.821 
 
>  <logP> 
2.066 
 
>  <lumo_energy> 
-0.057 
 
>  <melting_point> 
126.37 
 
>  <molecular_refractivity> 
43.43 
 
>  <oscillator_strength_1> 
0.2208 
 
>  <oscillator_strength_2> 
0.1171 
 
>  <oscillator_strength_3> 
0.0014 
 
>  <oscillator_strength_4> 
0.0288 
 
>  <open_babel_can_smiles> 
OC(=N)NN=C1CCCCC1 
 
>  <mulliken_charges> 
24 
1   -0.261093 
2   -0.260075 
3   -0.264071 
4   -0.337117 
5   -0.317561 
6   0.324247 
7   0.671097 
8   -0.658586 
9   -0.297655 
10   -0.480934 
11   -0.616874 
12   0.132114 
13   0.139997 
14   0.143578 
15   0.140659 
16   0.139152 
17   0.142033 
18   0.134081 
19   0.161412 
20   0.142708 
21   0.161648 
22   0.305358 
23   0.333404 
24   0.422478 
 
>  <lowdin_charges> 
24 
1   -0.277002 
2   -0.270628 
3   -0.275389 
4   -0.293995 
5   -0.274667 
6   0.015847 
7   0.155181 
8   -0.472962 
9   -0.103545 
10   -0.214041 
11   -0.385402 
12   0.137345 
13   0.148598 
14   0.143066 
15   0.148181 
16   0.148939 
17   0.141977 
18   0.14745 
19   0.157678 
20   0.146411 
21   0.163191 
22   0.26993 
23   0.273154 
24   0.370684 
 
$$$$ 
 
