PCCDB-ID:  7250 
public computational chemistry database (PCCDB) project, http://pccdb.org 
 
 20 20  0  0  0  0  0  0  0  0999 V2000 
    1.0232   -0.0291    0.0066 C   0  0  0  0  0  0  0  0  0  0  0  0 
    5.3403   -2.6351   -0.4483 C   0  0  0  0  0  0  0  0  0  0  0  0 
    3.2771    1.1362   -0.1213 C   0  0  0  0  0  0  0  0  0  0  0  0 
    4.6661    1.1104   -0.2348 C   0  0  0  0  0  0  0  0  0  0  0  0 
    3.2318   -1.2514   -0.2382 C   0  0  0  0  0  0  0  0  0  0  0  0 
    2.5292   -0.0440   -0.1234 C   0  0  0  0  0  0  0  0  0  0  0  0 
    4.6216   -1.3121   -0.3460 C   0  0  0  0  0  0  0  0  0  0  0  0 
    5.3553   -0.1037   -0.3466 C   0  0  0  0  0  0  0  0  0  0  0  0 
    6.7587   -0.1289   -0.3942 N   0  0  0  0  0  0  0  0  0  0  0  0 
    0.6317    0.9926   -0.0393 H   0  0  0  0  0  0  0  0  0  0  0  0 
    0.6926   -0.4646    0.9591 H   0  0  0  0  0  0  0  0  0  0  0  0 
    0.5405   -0.6052   -0.7929 H   0  0  0  0  0  0  0  0  0  0  0  0 
    4.6391   -3.4713   -0.3717 H   0  0  0  0  0  0  0  0  0  0  0  0 
    6.0904   -2.7472    0.3458 H   0  0  0  0  0  0  0  0  0  0  0  0 
    5.8715   -2.7466   -1.4062 H   0  0  0  0  0  0  0  0  0  0  0  0 
    2.7698    2.0948   -0.0358 H   0  0  0  0  0  0  0  0  0  0  0  0 
    5.2270    2.0432   -0.2326 H   0  0  0  0  0  0  0  0  0  0  0  0 
    2.6749   -2.1876   -0.2417 H   0  0  0  0  0  0  0  0  0  0  0  0 
    7.1741    0.7528   -0.6718 H   0  0  0  0  0  0  0  0  0  0  0  0 
    7.1504   -0.8917   -0.9337 H   0  0  0  0  0  0  0  0  0  0  0  0 
  1 11  1  0  0  0  0 
  2 13  1  0  0  0  0 
  2  7  1  0  0  0  0 
  2 14  1  0  0  0  0 
  3 16  1  0  0  0  0 
  4 17  1  0  0  0  0 
  4  3  2  0  0  0  0 
  5  6  2  0  0  0  0 
  6  3  1  0  0  0  0 
  6  1  1  0  0  0  0 
  7  5  1  0  0  0  0 
  8  7  2  0  0  0  0 
  8  4  1  0  0  0  0 
  9  8  1  0  0  0  0 
 10  1  1  0  0  0  0 
 12  1  1  0  0  0  0 
 15  2  1  0  0  0  0 
 18  5  1  0  0  0  0 
 19  9  1  0  0  0  0 
 20  9  1  0  0  0  0 
M  END 
>  <HBA> 
1 
 
>  <HBD> 
1 
 
>  <TPSA> 
26.02 
 
>  <cid> 
7250 
 
>  <dipole> 
1.55 
 
>  <excitation_energy_1> 
4.556 
 
>  <excitation_energy_2> 
4.665 
 
>  <excitation_energy_3> 
5.177 
 
>  <excitation_energy_4> 
5.244 
 
>  <homo_energy> 
-5.173 
 
>  <homo_lumo_gap> 
5.551 
 
>  <logP> 
2.467 
 
>  <lumo_energy> 
0.378 
 
>  <melting_point> 
62.15 
 
>  <molecular_refractivity> 
40.78 
 
>  <oscillator_strength_1> 
0.0178 
 
>  <oscillator_strength_2> 
0.0387 
 
>  <oscillator_strength_3> 
0.0027 
 
>  <oscillator_strength_4> 
0.0049 
 
>  <open_babel_can_smiles> 
Cc1ccc(c(c1)C)N 
 
>  <mulliken_charges> 
20 
1   -0.530335 
2   -0.55175 
3   -0.197817 
4   -0.167921 
5   -0.258056 
6   0.188032 
7   0.173812 
8   0.234498 
9   -0.790597 
10   0.14955 
11   0.157057 
12   0.153592 
13   0.158179 
14   0.168087 
15   0.14532 
16   0.114419 
17   0.110733 
18   0.108678 
19   0.315811 
20   0.318709 
 
>  <lowdin_charges> 
20 
1   -0.441765 
2   -0.445449 
3   -0.164567 
4   -0.201291 
5   -0.169377 
6   -0.023915 
7   -0.035335 
8   0.046574 
9   -0.496769 
10   0.153064 
11   0.156287 
12   0.156195 
13   0.160208 
14   0.161044 
15   0.147995 
16   0.151424 
17   0.14973 
18   0.148969 
19   0.272422 
20   0.274557 
 
$$$$ 
 
