PCCDB-ID:  19112 
public computational chemistry database (PCCDB) project, http://pccdb.org 
 
 28 28  0  0  0  0  0  0  0  0999 V2000 
    0.9044   -1.8958    0.0154 C   0  0  0  0  0  0  0  0  0  0  0  0 
    5.4399   -3.5831    0.0191 C   0  0  0  0  0  0  0  0  0  0  0  0 
    5.1038    3.8952    0.6201 C   0  0  0  0  0  0  0  0  0  0  0  0 
    7.0705    3.7646   -0.8746 C   0  0  0  0  0  0  0  0  0  0  0  0 
    2.8239   -0.2433    0.0035 C   0  0  0  0  0  0  0  0  0  0  0  0 
    5.0838   -1.0791    0.0094 C   0  0  0  0  0  0  0  0  0  0  0  0 
    2.3777   -1.5676    0.0242 C   0  0  0  0  0  0  0  0  0  0  0  0 
    4.5418   -2.3699    0.0237 C   0  0  0  0  0  0  0  0  0  0  0  0 
    4.1960   -0.0062   -0.0052 C   0  0  0  0  0  0  0  0  0  0  0  0 
    5.7155    1.7800   -0.5679 C   0  0  0  0  0  0  0  0  0  0  0  0 
    3.2213   -2.6114    0.0344 N   0  0  0  0  0  0  0  0  0  0  0  0 
    5.9491    3.0844   -0.2443 N   0  0  0  0  0  0  0  0  0  0  0  0 
    6.3981    1.1037   -1.3124 O   0  0  0  0  0  0  0  0  0  0  0  0 
    4.5745    1.3236    0.0650 O   0  0  0  0  0  0  0  0  0  0  0  0 
    0.2909   -1.0243    0.2641 H   0  0  0  0  0  0  0  0  0  0  0  0 
    0.6920   -2.6984    0.7281 H   0  0  0  0  0  0  0  0  0  0  0  0 
    0.5987   -2.2555   -0.9751 H   0  0  0  0  0  0  0  0  0  0  0  0 
    6.4861   -3.3161    0.1952 H   0  0  0  0  0  0  0  0  0  0  0  0 
    5.3768   -4.0992   -0.9468 H   0  0  0  0  0  0  0  0  0  0  0  0 
    5.1181   -4.2961    0.7850 H   0  0  0  0  0  0  0  0  0  0  0  0 
    4.5892    4.6743    0.0407 H   0  0  0  0  0  0  0  0  0  0  0  0 
    5.7218    4.3879    1.3810 H   0  0  0  0  0  0  0  0  0  0  0  0 
    4.3618    3.2739    1.1150 H   0  0  0  0  0  0  0  0  0  0  0  0 
    6.7157    4.5982   -1.4953 H   0  0  0  0  0  0  0  0  0  0  0  0 
    7.6088    3.0536   -1.4992 H   0  0  0  0  0  0  0  0  0  0  0  0 
    7.7481    4.1663   -0.1105 H   0  0  0  0  0  0  0  0  0  0  0  0 
    2.1304    0.5910    0.0018 H   0  0  0  0  0  0  0  0  0  0  0  0 
    6.1530   -0.9221   -0.0059 H   0  0  0  0  0  0  0  0  0  0  0  0 
  1  7  1  0  0  0  0 
  1 15  1  0  0  0  0 
  1 16  1  0  0  0  0 
  2  8  1  0  0  0  0 
  2 18  1  0  0  0  0 
  2 20  1  0  0  0  0 
  3 23  1  0  0  0  0 
  3 22  1  0  0  0  0 
  4 12  1  0  0  0  0 
  4 26  1  0  0  0  0 
  5  7  1  0  0  0  0 
  6  8  2  0  0  0  0 
  7 11  2  0  0  0  0 
  8 11  1  0  0  0  0 
  9  5  2  0  0  0  0 
  9  6  1  0  0  0  0 
  9 14  1  0  0  0  0 
 10 12  1  0  0  0  0 
 10 14  1  0  0  0  0 
 12  3  1  0  0  0  0 
 13 10  2  0  0  0  0 
 17  1  1  0  0  0  0 
 19  2  1  0  0  0  0 
 21  3  1  0  0  0  0 
 24  4  1  0  0  0  0 
 25  4  1  0  0  0  0 
 27  5  1  0  0  0  0 
 28  6  1  0  0  0  0 
M  END 
>  <HBA> 
4 
 
>  <HBD> 
0 
 
>  <TPSA> 
42.43 
 
>  <cid> 
19112 
 
>  <dipole> 
3.89 
 
>  <excitation_energy_1> 
5.011 
 
>  <excitation_energy_2> 
5.219 
 
>  <excitation_energy_3> 
5.29 
 
>  <excitation_energy_4> 
5.693 
 
>  <homo_energy> 
-6.528 
 
>  <homo_lumo_gap> 
6.185 
 
>  <logP> 
1.759 
 
>  <lumo_energy> 
-0.343 
 
>  <melting_point> 
66.64 
 
>  <molecular_refractivity> 
53.76 
 
>  <oscillator_strength_1> 
0.0034 
 
>  <oscillator_strength_2> 
0.0422 
 
>  <oscillator_strength_3> 
0.0003 
 
>  <oscillator_strength_4> 
0.1131 
 
>  <open_babel_can_smiles> 
O=C(N(C)C)Oc1cc(C)nc(c1)C 
 
>  <mulliken_charges> 
28 
1   -0.507397 
2   -0.505018 
3   -0.316119 
4   -0.319056 
5   -0.232655 
6   -0.197654 
7   0.304489 
8   0.2957 
9   0.401248 
10   0.787023 
11   -0.518547 
12   -0.436099 
13   -0.506179 
14   -0.557431 
15   0.146605 
16   0.171624 
17   0.170254 
18   0.149966 
19   0.171169 
20   0.16915 
21   0.158313 
22   0.158277 
23   0.198648 
24   0.156479 
25   0.206647 
26   0.156374 
27   0.133566 
28   0.160622 
 
>  <lowdin_charges> 
28 
1   -0.445492 
2   -0.44239 
3   -0.356074 
4   -0.353746 
5   -0.21556 
6   -0.207823 
7   0.063484 
8   0.063274 
9   0.13076 
10   0.21858 
11   -0.180231 
12   -0.103555 
13   -0.30231 
14   -0.171682 
15   0.153403 
16   0.169725 
17   0.167168 
18   0.153308 
19   0.168141 
20   0.168525 
21   0.151409 
22   0.154046 
23   0.180531 
24   0.151017 
25   0.187366 
26   0.152339 
27   0.167413 
28   0.178374 
 
$$$$ 
 
