PCCDB-ID:  17960 
public computational chemistry database (PCCDB) project, http://pccdb.org 
 
 30 31  0  0  0  0  0  0  0  0999 V2000 
    1.2795    0.0499   -2.7760 C   0  0  0  0  0  0  0  0  0  0  0  0 
    7.6882    1.5692   -2.5630 C   0  0  0  0  0  0  0  0  0  0  0  0 
    9.0586    1.8372   -2.5161 C   0  0  0  0  0  0  0  0  0  0  0  0 
    3.3513    1.3123   -2.5713 C   0  0  0  0  0  0  0  0  0  0  0  0 
    4.8688    1.1845   -2.6372 C   0  0  0  0  0  0  0  0  0  0  0  0 
   11.2469    4.6946   -2.1548 C   0  0  0  0  0  0  0  0  0  0  0  0 
   10.4015    5.4604   -1.1494 C   0  0  0  0  0  0  0  0  0  0  0  0 
    7.2445    3.8606   -1.9104 C   0  0  0  0  0  0  0  0  0  0  0  0 
    6.7769    2.5908   -2.2675 C   0  0  0  0  0  0  0  0  0  0  0  0 
    9.5322    3.0980   -2.1713 C   0  0  0  0  0  0  0  0  0  0  0  0 
    8.6107    4.1140   -1.8557 C   0  0  0  0  0  0  0  0  0  0  0  0 
    2.7289    0.0475   -2.9463 N   0  0  0  0  0  0  0  0  0  0  0  0 
    5.4153    2.4496   -2.2878 O   0  0  0  0  0  0  0  0  0  0  0  0 
   10.8948    3.3137   -2.1393 O   0  0  0  0  0  0  0  0  0  0  0  0 
    9.0199    5.3768   -1.4995 O   0  0  0  0  0  0  0  0  0  0  0  0 
    0.8703   -0.9018   -3.1304 H   0  0  0  0  0  0  0  0  0  0  0  0 
    0.7588    0.8700   -3.3048 H   0  0  0  0  0  0  0  0  0  0  0  0 
    1.0405    0.1393   -1.7099 H   0  0  0  0  0  0  0  0  0  0  0  0 
    7.3516    0.5765   -2.8358 H   0  0  0  0  0  0  0  0  0  0  0  0 
    9.7819    1.0629   -2.7533 H   0  0  0  0  0  0  0  0  0  0  0  0 
    3.0329    2.1704   -3.1923 H   0  0  0  0  0  0  0  0  0  0  0  0 
    3.0632    1.5463   -1.5393 H   0  0  0  0  0  0  0  0  0  0  0  0 
    5.1891    0.9006   -3.6523 H   0  0  0  0  0  0  0  0  0  0  0  0 
    5.2094    0.4036   -1.9446 H   0  0  0  0  0  0  0  0  0  0  0  0 
   12.3094    4.7464   -1.9015 H   0  0  0  0  0  0  0  0  0  0  0  0 
   11.0972    5.1105   -3.1616 H   0  0  0  0  0  0  0  0  0  0  0  0 
   10.6525    6.5246   -1.1436 H   0  0  0  0  0  0  0  0  0  0  0  0 
   10.5561    5.0496   -0.1419 H   0  0  0  0  0  0  0  0  0  0  0  0 
    6.5416    4.6501   -1.6684 H   0  0  0  0  0  0  0  0  0  0  0  0 
    2.9450   -0.1517   -3.9221 H   0  0  0  0  0  0  0  0  0  0  0  0 
  1 18  1  0  0  0  0 
  2  3  2  0  0  0  0 
  2  9  1  0  0  0  0 
  3 10  1  0  0  0  0 
  4 22  1  0  0  0  0 
  5  4  1  0  0  0  0 
  5 13  1  0  0  0  0 
  5 24  1  0  0  0  0 
  6 14  1  0  0  0  0 
  6 25  1  0  0  0  0 
  6  7  1  0  0  0  0 
  7 27  1  0  0  0  0 
  7 28  1  0  0  0  0 
  8 11  1  0  0  0  0 
  8 29  1  0  0  0  0 
  9  8  2  0  0  0  0 
 10 14  1  0  0  0  0 
 10 11  2  0  0  0  0 
 11 15  1  0  0  0  0 
 12  1  1  0  0  0  0 
 12  4  1  0  0  0  0 
 13  9  1  0  0  0  0 
 15  7  1  0  0  0  0 
 16  1  1  0  0  0  0 
 17  1  1  0  0  0  0 
 19  2  1  0  0  0  0 
 20  3  1  0  0  0  0 
 21  4  1  0  0  0  0 
 23  5  1  0  0  0  0 
 26  6  1  0  0  0  0 
 30 12  1  0  0  0  0 
M  END 
>  <HBA> 
4 
 
>  <HBD> 
1 
 
>  <TPSA> 
39.72 
 
>  <cid> 
17960 
 
>  <dipole> 
0.93 
 
>  <excitation_energy_1> 
4.636 
 
>  <excitation_energy_2> 
4.999 
 
>  <excitation_energy_3> 
5.099 
 
>  <excitation_energy_4> 
5.404 
 
>  <homo_energy> 
-5.252 
 
>  <homo_lumo_gap> 
5.467 
 
>  <logP> 
1.447 
 
>  <lumo_energy> 
0.215 
 
>  <melting_point> 
69.07 
 
>  <molecular_refractivity> 
56.22 
 
>  <oscillator_strength_1> 
0.0672 
 
>  <oscillator_strength_2> 
0.0125 
 
>  <oscillator_strength_3> 
0.0077 
 
>  <oscillator_strength_4> 
0.0028 
 
>  <open_babel_can_smiles> 
CNCCOc1ccc2c(c1)OCCO2 
 
>  <mulliken_charges> 
30 
1   -0.298893 
2   -0.202894 
3   -0.202256 
4   -0.139609 
5   -0.029639 
6   -0.059289 
7   -0.057556 
8   -0.258702 
9   0.385709 
10   0.325979 
11   0.341384 
12   -0.548521 
13   -0.533848 
14   -0.526527 
15   -0.524981 
16   0.150031 
17   0.122982 
18   0.155047 
19   0.133791 
20   0.13923 
21   0.128232 
22   0.154761 
23   0.128608 
24   0.152701 
25   0.156174 
26   0.155051 
27   0.156711 
28   0.157718 
29   0.144735 
30   0.293868 
 
>  <lowdin_charges> 
30 
1   -0.358089 
2   -0.221551 
3   -0.168637 
4   -0.206821 
5   -0.130865 
6   -0.138229 
7   -0.137446 
8   -0.205941 
9   0.099747 
10   0.044072 
11   0.070502 
12   -0.361037 
13   -0.205805 
14   -0.216252 
15   -0.208453 
16   0.151712 
17   0.123852 
18   0.148533 
19   0.163623 
20   0.168515 
21   0.12645 
22   0.149891 
23   0.131281 
24   0.146097 
25   0.157977 
26   0.145699 
27   0.158339 
28   0.147156 
29   0.176119 
30   0.249561 
 
$$$$ 
 
