PCCDB-ID:  8417 
public computational chemistry database (PCCDB) project, http://pccdb.org 
 
 25 26  0  0  0  0  0  0  0  0999 V2000 
    0.2798   -1.4276   -0.8991 C   0  0  0  0  0  0  0  0  0  0  0  0 
    3.9148    0.6847   -0.0498 C   0  0  0  0  0  0  0  0  0  0  0  0 
    2.8681   -5.6192    0.7677 C   0  0  0  0  0  0  0  0  0  0  0  0 
    3.7759   -6.4208    1.3727 C   0  0  0  0  0  0  0  0  0  0  0  0 
    2.1039   -3.2908    0.1998 C   0  0  0  0  0  0  0  0  0  0  0  0 
    4.3291   -2.2914    1.5726 C   0  0  0  0  0  0  0  0  0  0  0  0 
    3.0102   -4.1878    0.8044 C   0  0  0  0  0  0  0  0  0  0  0  0 
    4.1172   -3.6690    1.4934 C   0  0  0  0  0  0  0  0  0  0  0  0 
    2.2962   -1.9184    0.2810 C   0  0  0  0  0  0  0  0  0  0  0  0 
    3.4346   -1.4148    0.9727 C   0  0  0  0  0  0  0  0  0  0  0  0 
    4.9279   -5.8766    2.0829 C   0  0  0  0  0  0  0  0  0  0  0  0 
    5.7869   -6.5134    2.6462 O   0  0  0  0  0  0  0  0  0  0  0  0 
    1.4553   -0.9788   -0.2422 O   0  0  0  0  0  0  0  0  0  0  0  0 
    3.6396   -0.0739    1.1343 O   0  0  0  0  0  0  0  0  0  0  0  0 
    5.0296   -4.4831    2.1011 O   0  0  0  0  0  0  0  0  0  0  0  0 
   -0.2467   -0.5264   -1.2175 H   0  0  0  0  0  0  0  0  0  0  0  0 
   -0.3623   -2.0035   -0.2200 H   0  0  0  0  0  0  0  0  0  0  0  0 
    0.5177   -2.0401   -1.7790 H   0  0  0  0  0  0  0  0  0  0  0  0 
    3.0654    0.6778   -0.7377 H   0  0  0  0  0  0  0  0  0  0  0  0 
    4.8078    0.2969   -0.5565 H   0  0  0  0  0  0  0  0  0  0  0  0 
    4.1064    1.7042    0.2909 H   0  0  0  0  0  0  0  0  0  0  0  0 
    2.0167   -6.0480    0.2434 H   0  0  0  0  0  0  0  0  0  0  0  0 
    3.6986   -7.5017    1.3643 H   0  0  0  0  0  0  0  0  0  0  0  0 
    1.2444   -3.6993   -0.3200 H   0  0  0  0  0  0  0  0  0  0  0  0 
    5.1866   -1.8985    2.1067 H   0  0  0  0  0  0  0  0  0  0  0  0 
  1 13  1  0  0  0  0 
  1 17  1  0  0  0  0 
  2 21  1  0  0  0  0 
  2 14  1  0  0  0  0 
  3  7  1  0  0  0  0 
  3  4  2  0  0  0  0 
  4 11  1  0  0  0  0 
  5  9  2  0  0  0  0 
  5  7  1  0  0  0  0 
  6 25  1  0  0  0  0 
  7  8  2  0  0  0  0 
  8  6  1  0  0  0  0 
  8 15  1  0  0  0  0 
  9 10  1  0  0  0  0 
 10 14  1  0  0  0  0 
 10  6  2  0  0  0  0 
 11 15  1  0  0  0  0 
 11 12  2  0  0  0  0 
 13  9  1  0  0  0  0 
 16  1  1  0  0  0  0 
 18  1  1  0  0  0  0 
 19  2  1  0  0  0  0 
 20  2  1  0  0  0  0 
 22  3  1  0  0  0  0 
 23  4  1  0  0  0  0 
 24  5  1  0  0  0  0 
M  END 
>  <HBA> 
4 
 
>  <HBD> 
0 
 
>  <TPSA> 
48.67 
 
>  <cid> 
8417 
 
>  <dipole> 
6.8 
 
>  <excitation_energy_1> 
3.733 
 
>  <excitation_energy_2> 
4.419 
 
>  <excitation_energy_3> 
4.481 
 
>  <excitation_energy_4> 
5.018 
 
>  <homo_energy> 
-5.878 
 
>  <homo_lumo_gap> 
4.163 
 
>  <logP> 
1.81 
 
>  <lumo_energy> 
-1.714 
 
>  <melting_point> 
94.54 
 
>  <molecular_refractivity> 
55.47 
 
>  <oscillator_strength_1> 
0.1806 
 
>  <oscillator_strength_2> 
0.1118 
 
>  <oscillator_strength_3> 
0.0443 
 
>  <oscillator_strength_4> 
0.0416 
 
>  <open_babel_can_smiles> 
COc1cc2oc(=O)ccc2cc1OC 
 
>  <mulliken_charges> 
25 
1   -0.21761 
2   -0.216987 
3   -0.121851 
4   -0.222646 
5   -0.291707 
6   -0.236476 
7   0.134892 
8   0.317497 
9   0.35769 
10   0.334079 
11   0.594645 
12   -0.468893 
13   -0.51121 
14   -0.517161 
15   -0.522526 
16   0.176321 
17   0.157764 
18   0.154245 
19   0.168531 
20   0.146046 
21   0.166271 
22   0.150267 
23   0.161965 
24   0.14247 
25   0.164384 
 
>  <lowdin_charges> 
25 
1   -0.278918 
2   -0.275516 
3   -0.11019 
4   -0.202988 
5   -0.203913 
6   -0.187546 
7   -0.042398 
8   0.104377 
9   0.06968 
10   0.092768 
11   0.198142 
12   -0.245476 
13   -0.192115 
14   -0.212997 
15   -0.134848 
16   0.167195 
17   0.150309 
18   0.146497 
19   0.153894 
20   0.143367 
21   0.159565 
22   0.167939 
23   0.179396 
24   0.168074 
25   0.185701 
 
$$$$ 
 
