PCCDB-ID:  27441 
public computational chemistry database (PCCDB) project, http://pccdb.org 
 
 32 35  0  0  0  0  0  0  0  0999 V2000 
    0.9446   -0.0808    0.0266 C   0  0  0  0  0  0  0  0  0  0  0  0 
   11.0540   -0.4120    0.0383 C   0  0  0  0  0  0  0  0  0  0  0  0 
    5.3989    2.2412    0.0304 C   0  0  0  0  0  0  0  0  0  0  0  0 
    5.2388   -2.6772    0.0343 C   0  0  0  0  0  0  0  0  0  0  0  0 
    6.7610    2.1968    0.0317 C   0  0  0  0  0  0  0  0  0  0  0  0 
    6.5995   -2.7217    0.0353 C   0  0  0  0  0  0  0  0  0  0  0  0 
    3.2062    1.0558    0.0299 C   0  0  0  0  0  0  0  0  0  0  0  0 
    3.1296   -1.3510    0.0318 C   0  0  0  0  0  0  0  0  0  0  0  0 
    8.8716    0.8709    0.0353 C   0  0  0  0  0  0  0  0  0  0  0  0 
    8.7908   -1.5358    0.0368 C   0  0  0  0  0  0  0  0  0  0  0  0 
    2.4560   -0.1225    0.0303 C   0  0  0  0  0  0  0  0  0  0  0  0 
    9.5432   -0.3539    0.0370 C   0  0  0  0  0  0  0  0  0  0  0  0 
    4.6110    1.0392    0.0308 C   0  0  0  0  0  0  0  0  0  0  0  0 
    4.5289   -1.4251    0.0328 C   0  0  0  0  0  0  0  0  0  0  0  0 
    7.4687    0.9458    0.0336 C   0  0  0  0  0  0  0  0  0  0  0  0 
    7.3897   -1.5186    0.0353 C   0  0  0  0  0  0  0  0  0  0  0  0 
    5.2877   -0.2157    0.0323 C   0  0  0  0  0  0  0  0  0  0  0  0 
    6.7116   -0.2622    0.0336 C   0  0  0  0  0  0  0  0  0  0  0  0 
    0.5737    0.9485    0.0489 H   0  0  0  0  0  0  0  0  0  0  0  0 
    0.5280   -0.6056    0.8952 H   0  0  0  0  0  0  0  0  0  0  0  0 
    0.5337   -0.5646   -0.8684 H   0  0  0  0  0  0  0  0  0  0  0  0 
   11.4926    0.5907    0.0404 H   0  0  0  0  0  0  0  0  0  0  0  0 
   11.4342   -0.9415   -0.8442 H   0  0  0  0  0  0  0  0  0  0  0  0 
   11.4326   -0.9444    0.9198 H   0  0  0  0  0  0  0  0  0  0  0  0 
    4.8813    3.1977    0.0287 H   0  0  0  0  0  0  0  0  0  0  0  0 
    4.6597   -3.5978    0.0343 H   0  0  0  0  0  0  0  0  0  0  0  0 
    7.3400    3.1173    0.0312 H   0  0  0  0  0  0  0  0  0  0  0  0 
    7.1172   -3.6781    0.0363 H   0  0  0  0  0  0  0  0  0  0  0  0 
    2.6934    2.0157    0.0293 H   0  0  0  0  0  0  0  0  0  0  0  0 
    2.5552   -2.2758    0.0328 H   0  0  0  0  0  0  0  0  0  0  0  0 
    9.4459    1.7953    0.0358 H   0  0  0  0  0  0  0  0  0  0  0  0 
    9.3039   -2.4960    0.0383 H   0  0  0  0  0  0  0  0  0  0  0  0 
  1 11  1  0  0  0  0 
  1 19  1  0  0  0  0 
  1 20  1  0  0  0  0 
  2 22  1  0  0  0  0 
  2 24  1  0  0  0  0 
  3 13  2  0  0  0  0 
  3  5  1  0  0  0  0 
  4 26  1  0  0  0  0 
  4  6  2  0  0  0  0 
  5 15  2  0  0  0  0 
  6 28  1  0  0  0  0 
  7 11  2  0  0  0  0 
  7 13  1  0  0  0  0 
  8 30  1  0  0  0  0 
  8 14  2  0  0  0  0 
  9 31  1  0  0  0  0 
  9 12  2  0  0  0  0 
 10 12  1  0  0  0  0 
 10 32  1  0  0  0  0 
 11  8  1  0  0  0  0 
 12  2  1  0  0  0  0 
 13 17  1  0  0  0  0 
 14  4  1  0  0  0  0 
 15 18  1  0  0  0  0 
 15  9  1  0  0  0  0 
 16  6  1  0  0  0  0 
 16 10  2  0  0  0  0 
 17 14  1  0  0  0  0 
 17 18  2  0  0  0  0 
 18 16  1  0  0  0  0 
 21  1  1  0  0  0  0 
 23  2  1  0  0  0  0 
 25  3  1  0  0  0  0 
 27  5  1  0  0  0  0 
 29  7  1  0  0  0  0 
M  END 
>  <HBA> 
0 
 
>  <HBD> 
0 
 
>  <TPSA> 
0.0 
 
>  <cid> 
27441 
 
>  <dipole> 
0.09 
 
>  <excitation_energy_1> 
3.636 
 
>  <excitation_energy_2> 
3.657 
 
>  <excitation_energy_3> 
4.305 
 
>  <excitation_energy_4> 
4.488 
 
>  <homo_energy> 
-5.241 
 
>  <homo_lumo_gap> 
3.837 
 
>  <logP> 
5.201 
 
>  <lumo_energy> 
-1.404 
 
>  <melting_point> 
147.23 
 
>  <molecular_refractivity> 
80.08 
 
>  <oscillator_strength_1> 
0.2778 
 
>  <oscillator_strength_2> 
0.0035 
 
>  <oscillator_strength_3> 
0.0 
 
>  <oscillator_strength_4> 
0.2521 
 
>  <open_babel_can_smiles> 
Cc1cc2ccc3c4c2c(c1)ccc4cc(c3)C 
 
>  <mulliken_charges> 
32 
1   -0.533434 
2   -0.533286 
3   -0.197193 
4   -0.19603 
5   -0.197482 
6   -0.196074 
7   -0.296453 
8   -0.291652 
9   -0.296505 
10   -0.291518 
11   0.202802 
12   0.20262 
13   0.176474 
14   0.176263 
15   0.176654 
16   0.17625 
17   -0.017649 
18   -0.017691 
19   0.155553 
20   0.162608 
21   0.163209 
22   0.155518 
23   0.162941 
24   0.162864 
25   0.127968 
26   0.127913 
27   0.127988 
28   0.127899 
29   0.120137 
30   0.119583 
31   0.120218 
32   0.119506 
 
>  <lowdin_charges> 
32 
1   -0.442317 
2   -0.442571 
3   -0.157421 
4   -0.157917 
5   -0.15784 
6   -0.157525 
7   -0.173592 
8   -0.171802 
9   -0.174083 
10   -0.171312 
11   0.001511 
12   0.001477 
13   0.000701 
14   0.001402 
15   0.000822 
16   0.001284 
17   -0.004233 
18   -0.004231 
19   0.155909 
20   0.161531 
21   0.161606 
22   0.156235 
23   0.161566 
24   0.161536 
25   0.157988 
26   0.158323 
27   0.158331 
28   0.157984 
29   0.153945 
30   0.154375 
31   0.154331 
32   0.153988 
 
$$$$ 
 
