PCCDB-ID:  19951 
public computational chemistry database (PCCDB) project, http://pccdb.org 
 
 21 20  0  0  0  0  0  0  0  0999 V2000 
    1.2398   -0.2007   -0.5279 C   0  0  0  0  0  0  0  0  0  0  0  0 
    1.6689    0.0749    3.1815 C   0  0  0  0  0  0  0  0  0  0  0  0 
    4.7987    0.9008   -0.8298 C   0  0  0  0  0  0  0  0  0  0  0  0 
    2.2840   -0.5722    0.2146 C   0  0  0  0  0  0  0  0  0  0  0  0 
    3.0604   -0.0730    2.5587 C   0  0  0  0  0  0  0  0  0  0  0  0 
    4.6046    0.3376    0.5811 C   0  0  0  0  0  0  0  0  0  0  0  0 
    3.1356    0.3345    1.0680 C   0  0  0  0  0  0  0  0  0  0  0  0 
    0.6730   -0.9149   -1.1198 H   0  0  0  0  0  0  0  0  0  0  0  0 
    0.9102    0.8355   -0.5723 H   0  0  0  0  0  0  0  0  0  0  0  0 
    1.6740   -0.2341    4.2330 H   0  0  0  0  0  0  0  0  0  0  0  0 
    0.9272   -0.5336    2.6532 H   0  0  0  0  0  0  0  0  0  0  0  0 
    1.3285    1.1172    3.1420 H   0  0  0  0  0  0  0  0  0  0  0  0 
    5.8547    0.8745   -1.1217 H   0  0  0  0  0  0  0  0  0  0  0  0 
    4.4630    1.9438   -0.8874 H   0  0  0  0  0  0  0  0  0  0  0  0 
    4.2282    0.3305   -1.5705 H   0  0  0  0  0  0  0  0  0  0  0  0 
    2.5760   -1.6258    0.2252 H   0  0  0  0  0  0  0  0  0  0  0  0 
    3.4031   -1.1132    2.6615 H   0  0  0  0  0  0  0  0  0  0  0  0 
    3.7780    0.5400    3.1212 H   0  0  0  0  0  0  0  0  0  0  0  0 
    5.2028    0.9235    1.2924 H   0  0  0  0  0  0  0  0  0  0  0  0 
    4.9973   -0.6889    0.6270 H   0  0  0  0  0  0  0  0  0  0  0  0 
    2.7459    1.3604    0.9764 H   0  0  0  0  0  0  0  0  0  0  0  0 
  1  4  2  0  0  0  0 
  2 10  1  0  0  0  0 
  3  6  1  0  0  0  0 
  4 16  1  0  0  0  0 
  4  7  1  0  0  0  0 
  5 17  1  0  0  0  0 
  5 18  1  0  0  0  0 
  5  2  1  0  0  0  0 
  6 20  1  0  0  0  0 
  6  7  1  0  0  0  0 
  6 19  1  0  0  0  0 
  7  5  1  0  0  0  0 
  8  1  1  0  0  0  0 
  9  1  1  0  0  0  0 
 11  2  1  0  0  0  0 
 12  2  1  0  0  0  0 
 13  3  1  0  0  0  0 
 14  3  1  0  0  0  0 
 15  3  1  0  0  0  0 
 21  7  1  0  0  0  0 
M  END 
>  <HBA> 
0 
 
>  <HBD> 
0 
 
>  <TPSA> 
0.0 
 
>  <cid> 
19951 
 
>  <dipole> 
0.26 
 
>  <excitation_energy_1> 
6.494 
 
>  <excitation_energy_2> 
6.789 
 
>  <excitation_energy_3> 
6.812 
 
>  <excitation_energy_4> 
6.899 
 
>  <homo_energy> 
-6.8 
 
>  <homo_lumo_gap> 
7.464 
 
>  <logP> 
2.609 
 
>  <lumo_energy> 
0.664 
 
>  <melting_point> 
-47.83 
 
>  <molecular_refractivity> 
35.29 
 
>  <oscillator_strength_1> 
0.026 
 
>  <oscillator_strength_2> 
0.006 
 
>  <oscillator_strength_3> 
0.0017 
 
>  <oscillator_strength_4> 
0.2939 
 
>  <open_babel_can_smiles> 
CCC(C=C)CC 
 
>  <mulliken_charges> 
21 
1   -0.347184 
2   -0.443931 
3   -0.443681 
4   -0.035169 
5   -0.255789 
6   -0.256094 
7   -0.109318 
8   0.137066 
9   0.135452 
10   0.1399 
11   0.152642 
12   0.139319 
13   0.139837 
14   0.139284 
15   0.152626 
16   0.119133 
17   0.128157 
18   0.130476 
19   0.130559 
20   0.128231 
21   0.118485 
 
>  <lowdin_charges> 
21 
1   -0.346938 
2   -0.445964 
3   -0.445884 
4   -0.138762 
5   -0.271627 
6   -0.271882 
7   -0.124555 
8   0.158479 
9   0.152814 
10   0.147502 
11   0.154081 
12   0.144599 
13   0.147487 
14   0.144504 
15   0.154096 
16   0.145264 
17   0.137372 
18   0.142452 
19   0.142512 
20   0.13758 
21   0.136871 
 
$$$$ 
 
