PCCDB-ID:  70505 
public computational chemistry database (PCCDB) project, http://pccdb.org 
 
 21 21  0  0  0  0  0  0  0  0999 V2000 
    1.0318    0.1356   -0.1270 C   0  0  0  0  0  0  0  0  0  0  0  0 
    4.4964    0.1093    5.2914 C   0  0  0  0  0  0  0  0  0  0  0  0 
    2.5587    0.0882   -0.0708 C   0  0  0  0  0  0  0  0  0  0  0  0 
    3.7766   -1.1908    3.2571 C   0  0  0  0  0  0  0  0  0  0  0  0 
    3.9885    0.0068    3.8807 C   0  0  0  0  0  0  0  0  0  0  0  0 
    3.2751   -1.2532    1.9062 C   0  0  0  0  0  0  0  0  0  0  0  0 
    3.3029    1.1619    2.0369 C   0  0  0  0  0  0  0  0  0  0  0  0 
    3.7446    1.2115    3.2623 N   0  0  0  0  0  0  0  0  0  0  0  0 
    3.0684    0.0396    1.3133 N   0  0  0  0  0  0  0  0  0  0  0  0 
    3.0265   -2.2620    1.2574 O   0  0  0  0  0  0  0  0  0  0  0  0 
    3.0448    2.3165    1.3926 O   0  0  0  0  0  0  0  0  0  0  0  0 
    0.7009    0.1486   -1.1714 H   0  0  0  0  0  0  0  0  0  0  0  0 
    0.6443    1.0332    0.3653 H   0  0  0  0  0  0  0  0  0  0  0  0 
    0.6055   -0.7487    0.3556 H   0  0  0  0  0  0  0  0  0  0  0  0 
    4.6897   -0.8758    5.7237 H   0  0  0  0  0  0  0  0  0  0  0  0 
    3.7661    0.6345    5.9182 H   0  0  0  0  0  0  0  0  0  0  0  0 
    5.4211    0.6975    5.3182 H   0  0  0  0  0  0  0  0  0  0  0  0 
    3.0006    0.9582   -0.5588 H   0  0  0  0  0  0  0  0  0  0  0  0 
    2.9280   -0.8200   -0.5485 H   0  0  0  0  0  0  0  0  0  0  0  0 
    3.9630   -2.1372    3.7498 H   0  0  0  0  0  0  0  0  0  0  0  0 
    3.2685    3.0163    2.0333 H   0  0  0  0  0  0  0  0  0  0  0  0 
  1  3  1  0  0  0  0 
  1 14  1  0  0  0  0 
  1 13  1  0  0  0  0 
  2 17  1  0  0  0  0 
  2 15  1  0  0  0  0 
  2 16  1  0  0  0  0 
  3  9  1  0  0  0  0 
  4 20  1  0  0  0  0 
  4  5  2  0  0  0  0 
  5  2  1  0  0  0  0 
  6  4  1  0  0  0  0 
  7  8  2  0  0  0  0 
  8  5  1  0  0  0  0 
  9  6  1  0  0  0  0 
  9  7  1  0  0  0  0 
 10  6  2  0  0  0  0 
 11 21  1  0  0  0  0 
 11  7  1  0  0  0  0 
 12  1  1  0  0  0  0 
 18  3  1  0  0  0  0 
 19  3  1  0  0  0  0 
M  END 
>  <HBA> 
3 
 
>  <HBD> 
1 
 
>  <TPSA> 
54.86 
 
>  <cid> 
70505 
 
>  <dipole> 
3.21 
 
>  <excitation_energy_1> 
4.906 
 
>  <excitation_energy_2> 
5.0 
 
>  <excitation_energy_3> 
5.533 
 
>  <excitation_energy_4> 
5.8 
 
>  <homo_energy> 
-6.199 
 
>  <homo_lumo_gap> 
5.48 
 
>  <logP> 
-0.135 
 
>  <lumo_energy> 
-0.718 
 
>  <melting_point> 
127.82 
 
>  <molecular_refractivity> 
42.36 
 
>  <oscillator_strength_1> 
0.0928 
 
>  <oscillator_strength_2> 
0.0124 
 
>  <oscillator_strength_3> 
0.0009 
 
>  <oscillator_strength_4> 
0.0001 
 
>  <open_babel_can_smiles> 
CCn1c(O)nc(cc1=O)C 
 
>  <mulliken_charges> 
21 
1   -0.450894 
2   -0.508088 
3   -0.148677 
4   -0.264455 
5   0.318797 
6   0.612133 
7   0.726012 
8   -0.566464 
9   -0.511467 
10   -0.537814 
11   -0.60409 
12   0.153957 
13   0.15802 
14   0.176067 
15   0.160814 
16   0.173308 
17   0.173008 
18   0.17215 
19   0.193745 
20   0.145169 
21   0.428769 
 
>  <lowdin_charges> 
21 
1   -0.44821 
2   -0.441383 
3   -0.19536 
4   -0.256618 
5   0.085069 
6   0.163455 
7   0.180069 
8   -0.250573 
9   -0.056895 
10   -0.307974 
11   -0.34656 
12   0.157881 
13   0.155539 
14   0.165664 
15   0.160548 
16   0.171532 
17   0.170185 
18   0.163942 
19   0.17825 
20   0.176183 
21   0.375256 
 
$$$$ 
 
