PCCDB-ID:  50006 
public computational chemistry database (PCCDB) project, http://pccdb.org 
 
 32 31  0  0  1  0  0  0  0  0999 V2000 
    4.1278   -0.7266   -2.2011 C   0  0  0  0  0  0  0  0  0  0  0  0 
    1.6851   -0.4497   -1.6263 C   0  0  0  0  0  0  0  0  0  0  0  0 
    6.0889   -2.1219    4.3563 C   0  0  0  0  0  0  0  0  0  0  0  0 
    9.3027   -2.1588    1.3128 C   0  0  0  0  0  0  0  0  0  0  0  0 
    4.6552   -0.8921    0.9059 C   0  0  0  0  0  0  0  0  0  0  0  0 
    3.3109   -1.1036    0.1964 C   0  0  0  0  0  0  0  0  0  0  0  0 
    4.7395   -1.6363    2.2452 C   0  0  0  0  0  0  0  0  0  0  0  0 
    3.1263   -0.3103   -1.1130 C   0  0  0  0  0  0  0  0  0  0  0  0 
    6.0559   -1.4370    2.9932 C   0  0  2  0  0  0  0  0  0  0  0  0 
    8.3482   -1.4861    2.2739 C   0  0  0  0  0  0  0  0  0  0  0  0 
    8.6452   -0.5980    3.0439 O   0  0  0  0  0  0  0  0  0  0  0  0 
    7.1035   -2.0010    2.1483 O   0  0  0  0  0  0  0  0  0  0  0  0 
    3.9687   -0.1506   -3.1204 H   0  0  0  0  0  0  0  0  0  0  0  0 
    4.0114   -1.7896   -2.4518 H   0  0  0  0  0  0  0  0  0  0  0  0 
    5.1658   -0.5690   -1.8893 H   0  0  0  0  0  0  0  0  0  0  0  0 
    1.5292    0.1364   -2.5397 H   0  0  0  0  0  0  0  0  0  0  0  0 
    0.9591   -0.1071   -0.8791 H   0  0  0  0  0  0  0  0  0  0  0  0 
    1.4523   -1.4969   -1.8604 H   0  0  0  0  0  0  0  0  0  0  0  0 
    5.2958   -1.7233    4.9989 H   0  0  0  0  0  0  0  0  0  0  0  0 
    7.0485   -1.9460    4.8501 H   0  0  0  0  0  0  0  0  0  0  0  0 
    5.9363   -3.2018    4.2504 H   0  0  0  0  0  0  0  0  0  0  0  0 
    9.0392   -1.8942    0.2826 H   0  0  0  0  0  0  0  0  0  0  0  0 
    9.2305   -3.2471    1.3993 H   0  0  0  0  0  0  0  0  0  0  0  0 
   10.3211   -1.8300    1.5226 H   0  0  0  0  0  0  0  0  0  0  0  0 
    4.8087    0.1839    1.0786 H   0  0  0  0  0  0  0  0  0  0  0  0 
    5.4803   -1.2246    0.2661 H   0  0  0  0  0  0  0  0  0  0  0  0 
    2.5016   -0.8262    0.8880 H   0  0  0  0  0  0  0  0  0  0  0  0 
    3.1746   -2.1759   -0.0136 H   0  0  0  0  0  0  0  0  0  0  0  0 
    4.5846   -2.7125    2.0851 H   0  0  0  0  0  0  0  0  0  0  0  0 
    3.9286   -1.2999    2.9061 H   0  0  0  0  0  0  0  0  0  0  0  0 
    3.2990    0.7532   -0.8845 H   0  0  0  0  0  0  0  0  0  0  0  0 
    6.2728   -0.3707    3.1122 H   0  0  0  0  0  0  0  0  0  0  0  0 
  1 15  1  0  0  0  0 
  1  8  1  0  0  0  0 
  2  8  1  0  0  0  0 
  2 17  1  0  0  0  0 
  3 20  1  0  0  0  0 
  3 19  1  0  0  0  0 
  4 23  1  0  0  0  0 
  4 24  1  0  0  0  0 
  4 10  1  0  0  0  0 
  5 25  1  0  0  0  0 
  5  7  1  0  0  0  0 
  6 27  1  0  0  0  0 
  6  5  1  0  0  0  0 
  7 30  1  0  0  0  0 
  7  9  1  0  0  0  0 
  8 31  1  0  0  0  0 
  8  6  1  0  0  0  0 
  9 32  1  1  0  0  0 
  9  3  1  0  0  0  0 
 10 11  2  0  0  0  0 
 12 10  1  0  0  0  0 
 12  9  1  0  0  0  0 
 13  1  1  0  0  0  0 
 14  1  1  0  0  0  0 
 16  2  1  0  0  0  0 
 18  2  1  0  0  0  0 
 21  3  1  0  0  0  0 
 22  4  1  0  0  0  0 
 26  5  1  0  0  0  0 
 28  6  1  0  0  0  0 
 29  7  1  0  0  0  0 
M  END 
>  <HBA> 
2 
 
>  <HBD> 
0 
 
>  <TPSA> 
26.3 
 
>  <cid> 
50006 
 
>  <dipole> 
1.87 
 
>  <excitation_energy_1> 
5.792 
 
>  <excitation_energy_2> 
6.931 
 
>  <excitation_energy_3> 
7.388 
 
>  <excitation_energy_4> 
7.408 
 
>  <homo_energy> 
-7.225 
 
>  <homo_lumo_gap> 
7.687 
 
>  <logP> 
2.764 
 
>  <lumo_energy> 
0.463 
 
>  <melting_point> 
-16.78 
 
>  <molecular_refractivity> 
51.47 
 
>  <oscillator_strength_1> 
0.0011 
 
>  <oscillator_strength_2> 
0.033 
 
>  <oscillator_strength_3> 
0.0084 
 
>  <oscillator_strength_4> 
0.0065 
 
>  <open_babel_can_smiles> 
CC(CCC[C@H](OC(=O)C)C)C 
 
>  <mulliken_charges> 
32 
1   -0.444851 
2   -0.44203 
3   -0.463311 
4   -0.524497 
5   -0.266823 
6   -0.247061 
7   -0.269201 
8   -0.065823 
9   0.128213 
10   0.607119 
11   -0.471623 
12   -0.465679 
13   0.140159 
14   0.137506 
15   0.144339 
16   0.139566 
17   0.138977 
18   0.138146 
19   0.147296 
20   0.172303 
21   0.149639 
22   0.18096 
23   0.178419 
24   0.181288 
25   0.12843 
26   0.148117 
27   0.123894 
28   0.124502 
29   0.139354 
30   0.134829 
31   0.120194 
32   0.157651 
 
>  <lowdin_charges> 
32 
1   -0.444275 
2   -0.444296 
3   -0.452837 
4   -0.461827 
5   -0.278133 
6   -0.273806 
7   -0.279399 
8   -0.118273 
9   0.01051 
10   0.200632 
11   -0.269743 
12   -0.201259 
13   0.14856 
14   0.143446 
15   0.147271 
16   0.14783 
17   0.147826 
18   0.144006 
19   0.157438 
20   0.165643 
21   0.151424 
22   0.176613 
23   0.173476 
24   0.174077 
25   0.137112 
26   0.147684 
27   0.138772 
28   0.135329 
29   0.144686 
30   0.148027 
31   0.132761 
32   0.150727 
 
$$$$ 
 
