PCCDB-ID:  20983 
public computational chemistry database (PCCDB) project, http://pccdb.org 
 
 28 28  0  0  0  0  0  0  0  0999 V2000 
    2.5883   -0.5167    1.8173 C   0  0  0  0  0  0  0  0  0  0  0  0 
    3.8881    0.1225   -2.7705 C   0  0  0  0  0  0  0  0  0  0  0  0 
    4.5050   -1.9345   -1.6784 C   0  0  0  0  0  0  0  0  0  0  0  0 
    3.2619    0.5487   -1.6063 C   0  0  0  0  0  0  0  0  0  0  0  0 
    3.8979   -1.5008   -0.4980 C   0  0  0  0  0  0  0  0  0  0  0  0 
    4.5112   -1.1375   -2.8281 C   0  0  0  0  0  0  0  0  0  0  0  0 
    3.2599   -0.2567   -0.4592 C   0  0  0  0  0  0  0  0  0  0  0  0 
    6.8810   -2.5961   -6.1027 C   0  0  0  0  0  0  0  0  0  0  0  0 
    4.7779   -1.4372   -5.2751 C   0  0  0  0  0  0  0  0  0  0  0  0 
    7.2763   -3.0431   -4.9607 N   0  0  0  0  0  0  0  0  0  0  0  0 
    7.5098   -2.8018   -7.3347 N   0  0  0  0  0  0  0  0  0  0  0  0 
    3.6961   -0.9378   -5.7571 N   0  0  0  0  0  0  0  0  0  0  0  0 
    5.1939   -1.5916   -3.9734 N   0  0  0  0  0  0  0  0  0  0  0  0 
    5.7073   -1.8802   -6.2450 N   0  0  0  0  0  0  0  0  0  0  0  0 
    2.6204    0.2618    0.6340 O   0  0  0  0  0  0  0  0  0  0  0  0 
    2.0374    0.0743    2.5515 H   0  0  0  0  0  0  0  0  0  0  0  0 
    3.5989   -0.7166    2.1992 H   0  0  0  0  0  0  0  0  0  0  0  0 
    2.0704   -1.4727    1.6600 H   0  0  0  0  0  0  0  0  0  0  0  0 
    3.9186    0.7788   -3.6339 H   0  0  0  0  0  0  0  0  0  0  0  0 
    4.9810   -2.9112   -1.7069 H   0  0  0  0  0  0  0  0  0  0  0  0 
    2.7788    1.5197   -1.5588 H   0  0  0  0  0  0  0  0  0  0  0  0 
    3.9200   -2.1463    0.3726 H   0  0  0  0  0  0  0  0  0  0  0  0 
    8.1984   -3.4715   -5.0199 H   0  0  0  0  0  0  0  0  0  0  0  0 
    8.4387   -3.1973   -7.2625 H   0  0  0  0  0  0  0  0  0  0  0  0 
    7.4861   -2.0110   -7.9693 H   0  0  0  0  0  0  0  0  0  0  0  0 
    3.0486   -0.6836   -5.0132 H   0  0  0  0  0  0  0  0  0  0  0  0 
    5.9935   -2.2214   -3.8553 H   0  0  0  0  0  0  0  0  0  0  0  0 
    5.2975   -1.8369   -7.1689 H   0  0  0  0  0  0  0  0  0  0  0  0 
  1 17  1  0  0  0  0 
  1 16  1  0  0  0  0 
  2  4  1  0  0  0  0 
  3  5  2  0  0  0  0 
  4 21  1  0  0  0  0 
  4  7  2  0  0  0  0 
  5  7  1  0  0  0  0 
  5 22  1  0  0  0  0 
  6  2  2  0  0  0  0 
  6  3  1  0  0  0  0 
  7 15  1  0  0  0  0 
  8 10  1  0  0  0  0 
  9 13  1  0  0  0  0 
 11 24  1  0  0  0  0 
 11  8  2  0  0  0  0 
 12  9  2  0  0  0  0 
 12 26  1  0  0  0  0 
 13 27  1  0  0  0  0 
 13  6  1  0  0  0  0 
 14  8  1  0  0  0  0 
 14  9  1  0  0  0  0 
 15  1  1  0  0  0  0 
 18  1  1  0  0  0  0 
 19  2  1  0  0  0  0 
 20  3  1  0  0  0  0 
 23 10  1  0  0  0  0 
 25 11  1  0  0  0  0 
 28 14  1  0  0  0  0 
M  RAD  1  10   2 
M  END 
>  <HBA> 
6 
 
>  <HBD> 
3 
 
>  <TPSA> 
112.01 
 
>  <cid> 
20983 
 
>  <dipole> 
3.77 
 
>  <excitation_energy_1> 
4.379 
 
>  <excitation_energy_2> 
4.46 
 
>  <excitation_energy_3> 
4.721 
 
>  <excitation_energy_4> 
4.946 
 
>  <homo_energy> 
-5.119 
 
>  <homo_lumo_gap> 
5.148 
 
>  <logP> 
2.016 
 
>  <lumo_energy> 
0.03 
 
>  <melting_point> 
214.61 
 
>  <molecular_refractivity> 
58.76 
 
>  <oscillator_strength_1> 
0.0288 
 
>  <oscillator_strength_2> 
0.0122 
 
>  <oscillator_strength_3> 
0.2812 
 
>  <oscillator_strength_4> 
0.0034 
 
>  <open_babel_can_smiles> 
COc1ccc(cc1)NC(=N)NC(=[NH2])[NH] 
 
>  <mulliken_charges> 
28 
1   -0.213063 
2   -0.17903 
3   -0.189248 
4   -0.1852 
5   -0.200856 
6   0.337786 
7   0.375927 
8   0.667394 
9   0.64615 
10   -0.692386 
11   -0.757267 
12   -0.677249 
13   -0.746962 
14   -0.6646 
15   -0.510214 
16   0.168081 
17   0.149179 
18   0.150138 
19   0.151786 
20   0.136676 
21   0.139593 
22   0.131503 
23   0.280443 
24   0.327497 
25   0.331739 
26   0.288336 
27   0.386889 
28   0.346961 
 
>  <lowdin_charges> 
28 
1   -0.277907 
2   -0.178538 
3   -0.170072 
4   -0.174519 
5   -0.207506 
6   0.037889 
7   0.091119 
8   0.148162 
9   0.143201 
10   -0.486452 
11   -0.497881 
12   -0.48969 
13   -0.274828 
14   -0.256968 
15   -0.202537 
16   0.163338 
17   0.142739 
18   0.143491 
19   0.169375 
20   0.16135 
21   0.16691 
22   0.16314 
23   0.255689 
24   0.280099 
25   0.284414 
26   0.258982 
27   0.307651 
28   0.299352 
 
$$$$ 
 
