PCCDB-ID:  34850 
public computational chemistry database (PCCDB) project, http://pccdb.org 
 
 25 26  0  0  0  0  0  0  0  0999 V2000 
   -1.5585   -0.7381    0.6154 C   0  0  0  0  0  0  0  0  0  0  0  0 
   -0.7111   -1.5346   -0.1614 C   0  0  0  0  0  0  0  0  0  0  0  0 
   -1.1083    0.4909    1.0974 C   0  0  0  0  0  0  0  0  0  0  0  0 
    0.5789   -1.1012   -0.4589 C   0  0  0  0  0  0  0  0  0  0  0  0 
    0.1881    0.9214    0.8052 C   0  0  0  0  0  0  0  0  0  0  0  0 
    5.7188   -0.2007    0.6086 C   0  0  0  0  0  0  0  0  0  0  0  0 
    2.4315    0.5868   -0.3173 C   0  0  0  0  0  0  0  0  0  0  0  0 
    1.0368    0.1341    0.0224 C   0  0  0  0  0  0  0  0  0  0  0  0 
    6.7457   -0.9772   -0.1934 C   0  0  0  0  0  0  0  0  0  0  0  0 
    4.8997   -1.2966   -1.2776 C   0  0  0  0  0  0  0  0  0  0  0  0 
    6.2982   -1.5659   -1.2398 N   0  0  0  0  0  0  0  0  0  0  0  0 
    4.6118   -0.2714   -0.3284 N   0  0  0  0  0  0  0  0  0  0  0  0 
    8.0371   -1.0251    0.1444 O   0  0  0  0  0  0  0  0  0  0  0  0 
    4.0833   -1.8030   -2.0059 O   0  0  0  0  0  0  0  0  0  0  0  0 
    3.3453   -0.3693    0.2725 O   0  0  0  0  0  0  0  0  0  0  0  0 
   -2.5658   -1.0765    0.8435 H   0  0  0  0  0  0  0  0  0  0  0  0 
   -1.0591   -2.4931   -0.5373 H   0  0  0  0  0  0  0  0  0  0  0  0 
   -1.7616    1.1125    1.7040 H   0  0  0  0  0  0  0  0  0  0  0  0 
    1.2475   -1.7141   -1.0575 H   0  0  0  0  0  0  0  0  0  0  0  0 
    0.5410    1.8769    1.1869 H   0  0  0  0  0  0  0  0  0  0  0  0 
    6.0367    0.8290    0.8177 H   0  0  0  0  0  0  0  0  0  0  0  0 
    5.4749   -0.6990    1.5578 H   0  0  0  0  0  0  0  0  0  0  0  0 
    2.6388    1.5917    0.0744 H   0  0  0  0  0  0  0  0  0  0  0  0 
    2.5934    0.5899   -1.3994 H   0  0  0  0  0  0  0  0  0  0  0  0 
    8.1856   -0.5295    0.9663 H   0  0  0  0  0  0  0  0  0  0  0  0 
  1 16  1  0  0  0  0 
  1  3  2  0  0  0  0 
  2  1  1  0  0  0  0 
  3 18  1  0  0  0  0 
  4  2  2  0  0  0  0 
  4  8  1  0  0  0  0 
  5  3  1  0  0  0  0 
  5 20  1  0  0  0  0 
  6 21  1  0  0  0  0 
  6 22  1  0  0  0  0 
  7  8  1  0  0  0  0 
  7 23  1  0  0  0  0 
  7 15  1  0  0  0  0 
  8  5  2  0  0  0  0 
  9 13  1  0  0  0  0 
  9  6  1  0  0  0  0 
 10 11  1  0  0  0  0 
 10 12  1  0  0  0  0 
 11  9  2  0  0  0  0 
 12 15  1  0  0  0  0 
 12  6  1  0  0  0  0 
 13 25  1  0  0  0  0 
 14 10  2  0  0  0  0 
 17  2  1  0  0  0  0 
 19  4  1  0  0  0  0 
 24  7  1  0  0  0  0 
M  END 
>  <HBA> 
5 
 
>  <HBD> 
1 
 
>  <TPSA> 
58.64 
 
>  <cid> 
34850 
 
>  <dipole> 
6.26 
 
>  <excitation_energy_1> 
4.616 
 
>  <excitation_energy_2> 
5.019 
 
>  <excitation_energy_3> 
5.136 
 
>  <excitation_energy_4> 
5.291 
 
>  <homo_energy> 
-6.623 
 
>  <homo_lumo_gap> 
5.589 
 
>  <logP> 
0.937 
 
>  <lumo_energy> 
-1.034 
 
>  <melting_point> 
104.06 
 
>  <molecular_refractivity> 
59.12 
 
>  <oscillator_strength_1> 
0.0096 
 
>  <oscillator_strength_2> 
0.004 
 
>  <oscillator_strength_3> 
0.0008 
 
>  <oscillator_strength_4> 
0.0035 
 
>  <open_babel_can_smiles> 
O=C1N=C(CN1OCc1ccccc1)O 
 
>  <mulliken_charges> 
25 
1   -0.125173 
2   -0.133409 
3   -0.130031 
4   -0.163518 
5   -0.179414 
6   -0.200983 
7   -0.079121 
8   0.124553 
9   0.509822 
10   0.715851 
11   -0.464687 
12   -0.243983 
13   -0.559127 
14   -0.475359 
15   -0.388249 
16   0.130325 
17   0.134694 
18   0.129233 
19   0.168033 
20   0.123489 
21   0.179407 
22   0.200801 
23   0.131664 
24   0.171391 
25   0.423791 
 
>  <lowdin_charges> 
25 
1   -0.15198 
2   -0.153476 
3   -0.159827 
4   -0.147416 
5   -0.161559 
6   -0.235264 
7   -0.122609 
8   -0.020742 
9   0.145745 
10   0.176093 
11   -0.183704 
12   -0.04417 
13   -0.30992 
14   -0.240787 
15   -0.203248 
16   0.157244 
17   0.159691 
18   0.159054 
19   0.176589 
20   0.154145 
21   0.165133 
22   0.176146 
23   0.135976 
24   0.158106 
25   0.370778 
 
$$$$ 
 
