PCCDB-ID:  61988 
public computational chemistry database (PCCDB) project, http://pccdb.org 
 
 21 21  0  0  0  0  0  0  0  0999 V2000 
    0.7854   -0.2442   -0.1728 C   0  0  0  0  0  0  0  0  0  0  0  0 
    2.6453    4.0334   -2.1995 C   0  0  0  0  0  0  0  0  0  0  0  0 
    2.3026   -0.0752   -0.0948 C   0  0  0  0  0  0  0  0  0  0  0  0 
    3.9233   -0.0158   -3.3711 C   0  0  0  0  0  0  0  0  0  0  0  0 
    3.5997    1.3456   -3.2334 C   0  0  0  0  0  0  0  0  0  0  0  0 
    3.4818   -0.6468   -2.2172 C   0  0  0  0  0  0  0  0  0  0  0  0 
    2.4528    2.7491   -1.4023 C   0  0  0  0  0  0  0  0  0  0  0  0 
    2.9644    1.5194   -2.0008 C   0  0  0  0  0  0  0  0  0  0  0  0 
    2.9072    0.2685   -1.3886 N   0  0  0  0  0  0  0  0  0  0  0  0 
    1.8892    2.7792   -0.3083 O   0  0  0  0  0  0  0  0  0  0  0  0 
    0.3959   -0.5441    0.8067 H   0  0  0  0  0  0  0  0  0  0  0  0 
    0.5098   -1.0118   -0.9043 H   0  0  0  0  0  0  0  0  0  0  0  0 
    0.3143    0.7014   -0.4513 H   0  0  0  0  0  0  0  0  0  0  0  0 
    2.1322    3.9768   -3.1666 H   0  0  0  0  0  0  0  0  0  0  0  0 
    3.7063    4.2200   -2.4004 H   0  0  0  0  0  0  0  0  0  0  0  0 
    2.2338    4.8630   -1.6217 H   0  0  0  0  0  0  0  0  0  0  0  0 
    2.7787   -1.0069    0.2282 H   0  0  0  0  0  0  0  0  0  0  0  0 
    2.5565    0.7090    0.6176 H   0  0  0  0  0  0  0  0  0  0  0  0 
    4.4229   -0.4915   -4.2038 H   0  0  0  0  0  0  0  0  0  0  0  0 
    3.8051    2.1329   -3.9457 H   0  0  0  0  0  0  0  0  0  0  0  0 
    3.5398   -1.6864   -1.9234 H   0  0  0  0  0  0  0  0  0  0  0  0 
  1  3  1  0  0  0  0 
  1 11  1  0  0  0  0 
  2 16  1  0  0  0  0 
  2  7  1  0  0  0  0 
  3 17  1  0  0  0  0 
  3 18  1  0  0  0  0 
  4  5  1  0  0  0  0 
  4  6  2  0  0  0  0 
  5  8  2  0  0  0  0 
  6 21  1  0  0  0  0 
  6  9  1  0  0  0  0 
  7 10  2  0  0  0  0 
  8  7  1  0  0  0  0 
  8  9  1  0  0  0  0 
  9  3  1  0  0  0  0 
 12  1  1  0  0  0  0 
 13  1  1  0  0  0  0 
 14  2  1  0  0  0  0 
 15  2  1  0  0  0  0 
 19  4  1  0  0  0  0 
 20  5  1  0  0  0  0 
M  END 
>  <HBA> 
2 
 
>  <HBD> 
0 
 
>  <TPSA> 
22.0 
 
>  <cid> 
61988 
 
>  <dipole> 
2.03 
 
>  <excitation_energy_1> 
3.987 
 
>  <excitation_energy_2> 
4.74 
 
>  <excitation_energy_3> 
5.001 
 
>  <excitation_energy_4> 
5.599 
 
>  <homo_energy> 
-6.008 
 
>  <homo_lumo_gap> 
5.064 
 
>  <logP> 
1.711 
 
>  <lumo_energy> 
-0.944 
 
>  <melting_point> 
40.71 
 
>  <molecular_refractivity> 
40.7 
 
>  <oscillator_strength_1> 
0.0004 
 
>  <oscillator_strength_2> 
0.2684 
 
>  <oscillator_strength_3> 
0.0918 
 
>  <oscillator_strength_4> 
0.0067 
 
>  <open_babel_can_smiles> 
CCn1cccc1C(=O)C 
 
>  <mulliken_charges> 
21 
1   -0.444082 
2   -0.536634 
3   -0.140417 
4   -0.195169 
5   -0.20603 
6   0.048895 
7   0.410576 
8   0.255457 
9   -0.440446 
10   -0.49711 
11   0.148586 
12   0.146009 
13   0.181836 
14   0.169029 
15   0.168803 
16   0.176591 
17   0.144235 
18   0.193038 
19   0.132758 
20   0.133876 
21   0.150199 
 
>  <lowdin_charges> 
21 
1   -0.450466 
2   -0.469615 
3   -0.192425 
4   -0.214896 
5   -0.188626 
6   -0.127798 
7   0.148285 
8   -0.049125 
9   0.019746 
10   -0.278213 
11   0.156146 
12   0.150727 
13   0.168411 
14   0.168492 
15   0.167107 
16   0.173149 
17   0.149396 
18   0.175799 
19   0.164677 
20   0.165319 
21   0.163912 
 
$$$$ 
 
