PCCDB-ID:  23043 
public computational chemistry database (PCCDB) project, http://pccdb.org 
 
 31 31  0  0  0  0  0  0  0  0999 V2000 
    1.0604    0.3985   -0.2597 C   0  0  0  0  0  0  0  0  0  0  0  0 
    3.1319    0.6346    1.1922 C   0  0  0  0  0  0  0  0  0  0  0  0 
    4.0028   -5.4354   -1.2681 C   0  0  0  0  0  0  0  0  0  0  0  0 
    6.2150   -4.5778   -4.4840 C   0  0  0  0  0  0  0  0  0  0  0  0 
    2.8776   -3.6371    0.0202 C   0  0  0  0  0  0  0  0  0  0  0  0 
    2.5299   -2.3120    0.2965 C   0  0  0  0  0  0  0  0  0  0  0  0 
    2.5842    0.1877   -0.1767 C   0  0  0  0  0  0  0  0  0  0  0  0 
    3.6880   -3.9696   -1.0608 C   0  0  0  0  0  0  0  0  0  0  0  0 
    2.9681   -1.2539   -0.4878 C   0  0  0  0  0  0  0  0  0  0  0  0 
    4.1617   -2.9120   -1.8937 C   0  0  0  0  0  0  0  0  0  0  0  0 
    3.7911   -1.5622   -1.5950 C   0  0  0  0  0  0  0  0  0  0  0  0 
    5.0286   -3.1109   -3.0711 C   0  0  0  0  0  0  0  0  0  0  0  0 
    4.2044   -0.5233   -2.3440 O   0  0  0  0  0  0  0  0  0  0  0  0 
    5.4406   -2.1978   -3.7963 O   0  0  0  0  0  0  0  0  0  0  0  0 
    5.3712   -4.3829   -3.3359 O   0  0  0  0  0  0  0  0  0  0  0  0 
    0.8074    1.4500   -0.0783 H   0  0  0  0  0  0  0  0  0  0  0  0 
    0.5283   -0.2041    0.4868 H   0  0  0  0  0  0  0  0  0  0  0  0 
    0.6759    0.1225   -1.2477 H   0  0  0  0  0  0  0  0  0  0  0  0 
    2.8862    1.6869    1.3794 H   0  0  0  0  0  0  0  0  0  0  0  0 
    4.2212    0.5270    1.2367 H   0  0  0  0  0  0  0  0  0  0  0  0 
    2.7035    0.0430    2.0108 H   0  0  0  0  0  0  0  0  0  0  0  0 
    3.5133   -6.0274   -0.4890 H   0  0  0  0  0  0  0  0  0  0  0  0 
    5.0777   -5.6353   -1.2263 H   0  0  0  0  0  0  0  0  0  0  0  0 
    3.6572   -5.7967   -2.2413 H   0  0  0  0  0  0  0  0  0  0  0  0 
    6.3734   -5.6549   -4.5418 H   0  0  0  0  0  0  0  0  0  0  0  0 
    7.1654   -4.0541   -4.3555 H   0  0  0  0  0  0  0  0  0  0  0  0 
    5.7242   -4.2103   -5.3884 H   0  0  0  0  0  0  0  0  0  0  0  0 
    2.5064   -4.4294    0.6638 H   0  0  0  0  0  0  0  0  0  0  0  0 
    1.8943   -2.1061    1.1547 H   0  0  0  0  0  0  0  0  0  0  0  0 
    3.0473    0.8182   -0.9399 H   0  0  0  0  0  0  0  0  0  0  0  0 
    4.7646   -0.8908   -3.0761 H   0  0  0  0  0  0  0  0  0  0  0  0 
  1  7  1  0  0  0  0 
  1 16  1  0  0  0  0 
  1 17  1  0  0  0  0 
  2 20  1  0  0  0  0 
  2 19  1  0  0  0  0 
  2 21  1  0  0  0  0 
  3 23  1  0  0  0  0 
  3  8  1  0  0  0  0 
  3 22  1  0  0  0  0 
  4 26  1  0  0  0  0 
  4 15  1  0  0  0  0 
  5  6  1  0  0  0  0 
  5 28  1  0  0  0  0 
  6 29  1  0  0  0  0 
  7  2  1  0  0  0  0 
  8  5  2  0  0  0  0 
  9  7  1  0  0  0  0 
  9  6  2  0  0  0  0 
 10 11  2  0  0  0  0 
 10  8  1  0  0  0  0 
 11  9  1  0  0  0  0 
 12 10  1  0  0  0  0 
 13 11  1  0  0  0  0 
 14 12  2  0  0  0  0 
 15 12  1  0  0  0  0 
 18  1  1  0  0  0  0 
 24  3  1  0  0  0  0 
 25  4  1  0  0  0  0 
 27  4  1  0  0  0  0 
 30  7  1  0  0  0  0 
 31 13  1  0  0  0  0 
M  END 
>  <HBA> 
3 
 
>  <HBD> 
1 
 
>  <TPSA> 
46.53 
 
>  <cid> 
23043 
 
>  <dipole> 
2.41 
 
>  <excitation_energy_1> 
3.976 
 
>  <excitation_energy_2> 
5.04 
 
>  <excitation_energy_3> 
5.157 
 
>  <excitation_energy_4> 
5.458 
 
>  <homo_energy> 
-5.818 
 
>  <homo_lumo_gap> 
4.591 
 
>  <logP> 
2.611 
 
>  <lumo_energy> 
-1.227 
 
>  <melting_point> 
78.59 
 
>  <molecular_refractivity> 
59.29 
 
>  <oscillator_strength_1> 
0.1088 
 
>  <oscillator_strength_2> 
0.1695 
 
>  <oscillator_strength_3> 
0.0001 
 
>  <oscillator_strength_4> 
0.0 
 
>  <open_babel_can_smiles> 
COC(=O)c1c(C)ccc(c1O)C(C)C 
 
>  <mulliken_charges> 
31 
1   -0.439272 
2   -0.439017 
3   -0.504562 
4   -0.216973 
5   -0.198148 
6   -0.185873 
7   -0.153766 
8   0.125249 
9   0.143993 
10   -0.022696 
11   0.233624 
12   0.622561 
13   -0.657307 
14   -0.563036 
15   -0.465522 
16   0.140921 
17   0.136574 
18   0.150418 
19   0.140835 
20   0.150555 
21   0.136576 
22   0.147161 
23   0.165851 
24   0.165502 
25   0.167478 
26   0.175332 
27   0.175643 
28   0.121901 
29   0.130877 
30   0.166503 
31   0.448618 
 
>  <lowdin_charges> 
31 
1   -0.440304 
2   -0.43801 
3   -0.440087 
4   -0.274946 
5   -0.197647 
6   -0.132737 
7   -0.12291 
8   0.027903 
9   -0.037573 
10   -0.117503 
11   0.121895 
12   0.213179 
13   -0.376939 
14   -0.31634 
15   -0.169065 
16   0.14689 
17   0.144462 
18   0.152557 
19   0.146754 
20   0.151028 
21   0.144163 
22   0.153413 
23   0.162101 
24   0.163391 
25   0.160137 
26   0.162278 
27   0.163144 
28   0.156596 
29   0.158646 
30   0.163831 
31   0.371693 
 
$$$$ 
 
