PCCDB-ID:  28207 
public computational chemistry database (PCCDB) project, http://pccdb.org 
 
 28 28  0  0  0  0  0  0  0  0999 V2000 
    1.1415    1.1710   -2.5903 C   0  0  0  0  0  0  0  0  0  0  0  0 
    8.7544   -2.8962   -2.6362 C   0  0  0  0  0  0  0  0  0  0  0  0 
    2.0841    0.1611   -1.9581 C   0  0  0  0  0  0  0  0  0  0  0  0 
    5.4531   -2.0533   -0.5706 C   0  0  0  0  0  0  0  0  0  0  0  0 
    4.3238   -1.3590   -1.0161 C   0  0  0  0  0  0  0  0  0  0  0  0 
    6.8630   -0.3920   -1.6142 C   0  0  0  0  0  0  0  0  0  0  0  0 
    8.7348   -2.7874   -1.1262 C   0  0  0  0  0  0  0  0  0  0  0  0 
    6.7336   -1.5855   -0.8819 C   0  0  0  0  0  0  0  0  0  0  0  0 
    5.7428    0.3247   -2.0439 C   0  0  0  0  0  0  0  0  0  0  0  0 
    4.4566   -0.1808   -1.7459 C   0  0  0  0  0  0  0  0  0  0  0  0 
    5.8545    1.5496   -2.7066 N   0  0  0  0  0  0  0  0  0  0  0  0 
    7.8575   -2.2653   -0.3757 N   0  0  0  0  0  0  0  0  0  0  0  0 
    9.8066   -3.3590   -0.4981 O   0  0  0  0  0  0  0  0  0  0  0  0 
    3.4161    0.5804   -2.2325 O   0  0  0  0  0  0  0  0  0  0  0  0 
    0.1009    0.8883   -2.3980 H   0  0  0  0  0  0  0  0  0  0  0  0 
    1.2934    1.2166   -3.6737 H   0  0  0  0  0  0  0  0  0  0  0  0 
    1.3127    2.1693   -2.1754 H   0  0  0  0  0  0  0  0  0  0  0  0 
    9.6135   -2.3569   -3.0549 H   0  0  0  0  0  0  0  0  0  0  0  0 
    7.8422   -2.4861   -3.0705 H   0  0  0  0  0  0  0  0  0  0  0  0 
    8.8450   -3.9490   -2.9342 H   0  0  0  0  0  0  0  0  0  0  0  0 
    1.9151   -0.8448   -2.3703 H   0  0  0  0  0  0  0  0  0  0  0  0 
    1.9282    0.1076   -0.8709 H   0  0  0  0  0  0  0  0  0  0  0  0 
    5.3461   -2.9604    0.0148 H   0  0  0  0  0  0  0  0  0  0  0  0 
    3.3390   -1.7474   -0.7805 H   0  0  0  0  0  0  0  0  0  0  0  0 
    7.8551    0.0059   -1.8141 H   0  0  0  0  0  0  0  0  0  0  0  0 
    6.7051    1.6650   -3.2427 H   0  0  0  0  0  0  0  0  0  0  0  0 
    5.0275    1.7994   -3.2342 H   0  0  0  0  0  0  0  0  0  0  0  0 
   10.3845   -3.7636   -1.1629 H   0  0  0  0  0  0  0  0  0  0  0  0 
  1 15  1  0  0  0  0 
  1 17  1  0  0  0  0 
  1  3  1  0  0  0  0 
  2  7  1  0  0  0  0 
  3 22  1  0  0  0  0 
  4 23  1  0  0  0  0 
  5 24  1  0  0  0  0 
  5  4  2  0  0  0  0 
  6  8  2  0  0  0  0 
  7 13  1  0  0  0  0 
  7 12  2  0  0  0  0 
  8  4  1  0  0  0  0 
  8 12  1  0  0  0  0 
  9 10  2  0  0  0  0 
  9  6  1  0  0  0  0 
 10  5  1  0  0  0  0 
 11  9  1  0  0  0  0 
 14  3  1  0  0  0  0 
 14 10  1  0  0  0  0 
 16  1  1  0  0  0  0 
 18  2  1  0  0  0  0 
 19  2  1  0  0  0  0 
 20  2  1  0  0  0  0 
 21  3  1  0  0  0  0 
 25  6  1  0  0  0  0 
 26 11  1  0  0  0  0 
 27 11  1  0  0  0  0 
 28 13  1  0  0  0  0 
M  END 
>  <HBA> 
4 
 
>  <HBD> 
2 
 
>  <TPSA> 
64.35 
 
>  <cid> 
28207 
 
>  <dipole> 
4.68 
 
>  <excitation_energy_1> 
4.191 
 
>  <excitation_energy_2> 
4.321 
 
>  <excitation_energy_3> 
4.434 
 
>  <excitation_energy_4> 
4.567 
 
>  <homo_energy> 
-4.77 
 
>  <homo_lumo_gap> 
5.086 
 
>  <logP> 
2.28 
 
>  <lumo_energy> 
0.316 
 
>  <melting_point> 
114.2 
 
>  <molecular_refractivity> 
56.46 
 
>  <oscillator_strength_1> 
0.0066 
 
>  <oscillator_strength_2> 
0.0826 
 
>  <oscillator_strength_3> 
0.0338 
 
>  <oscillator_strength_4> 
0.0215 
 
>  <open_babel_can_smiles> 
CCOc1ccc(cc1N)/N=C(/O)\C 
 
>  <mulliken_charges> 
28 
1   -0.458779 
2   -0.554628 
3   -0.021382 
4   -0.174619 
5   -0.209343 
6   -0.224758 
7   0.480473 
8   0.237251 
9   0.257359 
10   0.352351 
11   -0.791467 
12   -0.466874 
13   -0.573172 
14   -0.550408 
15   0.148714 
16   0.156908 
17   0.163845 
18   0.171087 
19   0.197287 
20   0.167039 
21   0.136768 
22   0.142283 
23   0.123602 
24   0.128796 
25   0.111298 
26   0.31285 
27   0.33256 
28   0.404959 
 
>  <lowdin_charges> 
28 
1   -0.444978 
2   -0.48451 
3   -0.117424 
4   -0.196921 
5   -0.199526 
6   -0.228688 
7   0.143013 
8   0.041635 
9   0.04208 
10   0.055385 
11   -0.491217 
12   -0.169907 
13   -0.366542 
14   -0.222267 
15   0.156193 
16   0.15443 
17   0.159165 
18   0.168039 
19   0.18405 
20   0.164361 
21   0.134724 
22   0.136797 
23   0.160153 
24   0.160127 
25   0.152274 
26   0.272491 
27   0.281538 
28   0.355523 
 
$$$$ 
 
