PCCDB-ID:  8034 
public computational chemistry database (PCCDB) project, http://pccdb.org 
 
 22 21  0  0  0  0  0  0  0  0999 V2000 
    3.7432    0.4113    1.9234 C   0  0  0  0  0  0  0  0  0  0  0  0 
    1.7122   -0.6767    0.8922 C   0  0  0  0  0  0  0  0  0  0  0  0 
    6.3022    1.9544   -2.7898 C   0  0  0  0  0  0  0  0  0  0  0  0 
    3.3276    0.5612   -0.6001 C   0  0  0  0  0  0  0  0  0  0  0  0 
    4.7713    0.8606   -1.0096 C   0  0  0  0  0  0  0  0  0  0  0  0 
    3.1830   -0.2900    0.6761 C   0  0  0  0  0  0  0  0  0  0  0  0 
    4.8927    1.6071   -2.3349 C   0  0  0  0  0  0  0  0  0  0  0  0 
    3.9186    1.9113   -2.9973 O   0  0  0  0  0  0  0  0  0  0  0  0 
    3.6030   -0.2085    2.8169 H   0  0  0  0  0  0  0  0  0  0  0  0 
    3.2296    1.3660    2.0981 H   0  0  0  0  0  0  0  0  0  0  0  0 
    4.8153    0.6205    1.8361 H   0  0  0  0  0  0  0  0  0  0  0  0 
    1.5948   -1.3160    1.7752 H   0  0  0  0  0  0  0  0  0  0  0  0 
    1.3110   -1.2192    0.0280 H   0  0  0  0  0  0  0  0  0  0  0  0 
    1.0905    0.2155    1.0425 H   0  0  0  0  0  0  0  0  0  0  0  0 
    6.9189    1.0503   -2.8674 H   0  0  0  0  0  0  0  0  0  0  0  0 
    6.7904    2.6102   -2.0577 H   0  0  0  0  0  0  0  0  0  0  0  0 
    6.2645    2.4565   -3.7586 H   0  0  0  0  0  0  0  0  0  0  0  0 
    2.8321    0.0504   -1.4345 H   0  0  0  0  0  0  0  0  0  0  0  0 
    2.7866    1.5087   -0.4726 H   0  0  0  0  0  0  0  0  0  0  0  0 
    5.3535   -0.0707   -1.0963 H   0  0  0  0  0  0  0  0  0  0  0  0 
    5.2960    1.4515   -0.2452 H   0  0  0  0  0  0  0  0  0  0  0  0 
    3.7548   -1.2199    0.5268 H   0  0  0  0  0  0  0  0  0  0  0  0 
  1 10  1  0  0  0  0 
  1  9  1  0  0  0  0 
  2 14  1  0  0  0  0 
  2 12  1  0  0  0  0 
  3  7  1  0  0  0  0 
  3 16  1  0  0  0  0 
  4 19  1  0  0  0  0 
  4  6  1  0  0  0  0 
  5  4  1  0  0  0  0 
  5 21  1  0  0  0  0 
  6  2  1  0  0  0  0 
  6  1  1  0  0  0  0 
  7  5  1  0  0  0  0 
  8  7  2  0  0  0  0 
 11  1  1  0  0  0  0 
 13  2  1  0  0  0  0 
 15  3  1  0  0  0  0 
 17  3  1  0  0  0  0 
 18  4  1  0  0  0  0 
 20  5  1  0  0  0  0 
 22  6  1  0  0  0  0 
M  END 
>  <HBA> 
1 
 
>  <HBD> 
0 
 
>  <TPSA> 
17.07 
 
>  <cid> 
8034 
 
>  <dipole> 
2.64 
 
>  <excitation_energy_1> 
4.43 
 
>  <excitation_energy_2> 
6.102 
 
>  <excitation_energy_3> 
6.679 
 
>  <excitation_energy_4> 
6.938 
 
>  <homo_energy> 
-6.599 
 
>  <homo_lumo_gap> 
6.343 
 
>  <logP> 
2.012 
 
>  <lumo_energy> 
-0.256 
 
>  <melting_point> 
-5.84 
 
>  <molecular_refractivity> 
35.96 
 
>  <oscillator_strength_1> 
0.0001 
 
>  <oscillator_strength_2> 
0.0258 
 
>  <oscillator_strength_3> 
0.0109 
 
>  <oscillator_strength_4> 
0.0095 
 
>  <open_babel_can_smiles> 
CC(CCC(=O)C)C 
 
>  <mulliken_charges> 
22 
1   -0.445985 
2   -0.442038 
3   -0.527887 
4   -0.23938 
5   -0.363545 
6   -0.070131 
7   0.452893 
8   -0.435871 
9   0.142088 
10   0.14044 
11   0.139033 
12   0.138747 
13   0.142394 
14   0.141189 
15   0.165536 
16   0.167058 
17   0.179234 
18   0.147572 
19   0.140856 
20   0.153317 
21   0.157236 
22   0.117245 
 
>  <lowdin_charges> 
22 
1   -0.446045 
2   -0.445331 
3   -0.477891 
4   -0.2729 
5   -0.315755 
6   -0.120709 
7   0.168245 
8   -0.236389 
9   0.149709 
10   0.146154 
11   0.143506 
12   0.147656 
13   0.149647 
14   0.147328 
15   0.167968 
16   0.169951 
17   0.172184 
18   0.153258 
19   0.14753 
20   0.158483 
21   0.160655 
22   0.132744 
 
$$$$ 
 
