PCCDB-ID:  27458 
public computational chemistry database (PCCDB) project, http://pccdb.org 
 
 22 22  0  0  0  0  0  0  0  0999 V2000 
    0.8779    0.0430   -0.1139 C   0  0  0  0  0  0  0  0  0  0  0  0 
    4.6975   -2.6535    1.0236 C   0  0  0  0  0  0  0  0  0  0  0  0 
    2.4110    0.1662   -0.0475 C   0  0  0  0  0  0  0  0  0  0  0  0 
    3.3312   -2.2644    1.6165 C   0  0  0  0  0  0  0  0  0  0  0  0 
    3.3590    1.6426    3.1551 C   0  0  0  0  0  0  0  0  0  0  0  0 
    3.7663    0.5446    3.9090 C   0  0  0  0  0  0  0  0  0  0  0  0 
    2.9178    0.2707    1.3751 C   0  0  0  0  0  0  0  0  0  0  0  0 
    3.3165   -0.8463    2.1459 C   0  0  0  0  0  0  0  0  0  0  0  0 
    2.9378    1.5081    1.8951 N   0  0  0  0  0  0  0  0  0  0  0  0 
    3.7448   -0.6935    3.4089 N   0  0  0  0  0  0  0  0  0  0  0  0 
    0.5363    0.0059   -1.1542 H   0  0  0  0  0  0  0  0  0  0  0  0 
    0.4060    0.9037    0.3716 H   0  0  0  0  0  0  0  0  0  0  0  0 
    0.5248   -0.8638    0.3909 H   0  0  0  0  0  0  0  0  0  0  0  0 
    4.6898   -3.6946    0.6820 H   0  0  0  0  0  0  0  0  0  0  0  0 
    5.4839   -2.5461    1.7779 H   0  0  0  0  0  0  0  0  0  0  0  0 
    4.9614   -2.0192    0.1693 H   0  0  0  0  0  0  0  0  0  0  0  0 
    2.7198    1.0765   -0.5718 H   0  0  0  0  0  0  0  0  0  0  0  0 
    2.8759   -0.6802   -0.5640 H   0  0  0  0  0  0  0  0  0  0  0  0 
    3.1040   -2.9285    2.4570 H   0  0  0  0  0  0  0  0  0  0  0  0 
    2.5451   -2.4075    0.8676 H   0  0  0  0  0  0  0  0  0  0  0  0 
    3.3734    2.6494    3.5688 H   0  0  0  0  0  0  0  0  0  0  0  0 
    4.1138    0.6598    4.9342 H   0  0  0  0  0  0  0  0  0  0  0  0 
  1  3  1  0  0  0  0 
  1 12  1  0  0  0  0 
  1 13  1  0  0  0  0 
  2  4  1  0  0  0  0 
  2 15  1  0  0  0  0 
  3  7  1  0  0  0  0 
  4  8  1  0  0  0  0 
  4 19  1  0  0  0  0 
  5 21  1  0  0  0  0 
  5  6  2  0  0  0  0 
  6 22  1  0  0  0  0 
  7  9  2  0  0  0  0 
  7  8  1  0  0  0  0 
  8 10  2  0  0  0  0 
  9  5  1  0  0  0  0 
 10  6  1  0  0  0  0 
 11  1  1  0  0  0  0 
 14  2  1  0  0  0  0 
 16  2  1  0  0  0  0 
 17  3  1  0  0  0  0 
 18  3  1  0  0  0  0 
 20  4  1  0  0  0  0 
M  END 
>  <HBA> 
2 
 
>  <HBD> 
0 
 
>  <TPSA> 
25.78 
 
>  <cid> 
27458 
 
>  <dipole> 
0.73 
 
>  <excitation_energy_1> 
4.03 
 
>  <excitation_energy_2> 
4.713 
 
>  <excitation_energy_3> 
5.088 
 
>  <excitation_energy_4> 
5.543 
 
>  <homo_energy> 
-6.514 
 
>  <homo_lumo_gap> 
5.399 
 
>  <logP> 
1.601 
 
>  <lumo_energy> 
-1.116 
 
>  <melting_point> 
41.67 
 
>  <molecular_refractivity> 
41.58 
 
>  <oscillator_strength_1> 
0.0053 
 
>  <oscillator_strength_2> 
0.0001 
 
>  <oscillator_strength_3> 
0.1429 
 
>  <oscillator_strength_4> 
0.0007 
 
>  <open_babel_can_smiles> 
CCc1nccnc1CC 
 
>  <mulliken_charges> 
22 
1   -0.446341 
2   -0.446316 
3   -0.319309 
4   -0.319824 
5   0.027524 
6   0.027414 
7   0.260607 
8   0.260883 
9   -0.436504 
10   -0.436472 
11   0.148908 
12   0.164717 
13   0.147583 
14   0.148937 
15   0.164652 
16   0.147637 
17   0.163398 
18   0.144918 
19   0.163525 
20   0.144994 
21   0.14452 
22   0.14455 
 
>  <lowdin_charges> 
22 
1   -0.440257 
2   -0.44016 
3   -0.2811 
4   -0.280415 
5   -0.112605 
6   -0.110592 
7   0.031516 
8   0.029602 
9   -0.131981 
10   -0.132057 
11   0.151659 
12   0.159187 
13   0.148507 
14   0.151603 
15   0.158944 
16   0.148707 
17   0.163959 
18   0.151085 
19   0.164283 
20   0.150827 
21   0.160048 
22   0.159241 
 
$$$$ 
 
