PCCDB-ID:  14254 
public computational chemistry database (PCCDB) project, http://pccdb.org 
 
 33 32  0  0  1  0  0  0  0  0999 V2000 
   10.6071   -2.1685   -3.9762 C   0  0  0  0  0  0  0  0  0  0  0  0 
    6.8149   -2.5267    4.0314 C   0  0  0  0  0  0  0  0  0  0  0  0 
    9.9932   -3.4369   -3.3713 C   0  0  0  0  0  0  0  0  0  0  0  0 
    9.2056   -3.2056   -2.0703 C   0  0  0  0  0  0  0  0  0  0  0  0 
    7.9515   -2.3337   -2.2444 C   0  0  0  0  0  0  0  0  0  0  0  0 
    6.9635   -2.3045   -1.0625 C   0  0  0  0  0  0  0  0  0  0  0  0 
    7.4224   -1.5840    0.2238 C   0  0  0  0  0  0  0  0  0  0  0  0 
    8.2678   -2.4274    1.1934 C   0  0  0  0  0  0  0  0  0  0  0  0 
    8.6798   -1.6971    2.4833 C   0  0  0  0  0  0  0  0  0  0  0  0 
    7.5458   -1.3184    3.4421 C   0  0  2  0  0  0  0  0  0  0  0  0 
    8.1686   -0.5495    4.4785 O   0  0  0  0  0  0  0  0  0  0  0  0 
   11.2021   -2.4046   -4.8659 H   0  0  0  0  0  0  0  0  0  0  0  0 
   11.2688   -1.6695   -3.2568 H   0  0  0  0  0  0  0  0  0  0  0  0 
    9.8401   -1.4459   -4.2768 H   0  0  0  0  0  0  0  0  0  0  0  0 
    6.3183   -3.1205    3.2558 H   0  0  0  0  0  0  0  0  0  0  0  0 
    6.0413   -2.2053    4.7413 H   0  0  0  0  0  0  0  0  0  0  0  0 
    7.5204   -3.1723    4.5671 H   0  0  0  0  0  0  0  0  0  0  0  0 
   10.7961   -4.1595   -3.1713 H   0  0  0  0  0  0  0  0  0  0  0  0 
    9.3338   -3.9125   -4.1118 H   0  0  0  0  0  0  0  0  0  0  0  0 
    9.8790   -2.7563   -1.3278 H   0  0  0  0  0  0  0  0  0  0  0  0 
    8.9064   -4.1817   -1.6621 H   0  0  0  0  0  0  0  0  0  0  0  0 
    7.4031   -2.6992   -3.1258 H   0  0  0  0  0  0  0  0  0  0  0  0 
    8.2462   -1.3021   -2.4824 H   0  0  0  0  0  0  0  0  0  0  0  0 
    6.6621   -3.3334   -0.8140 H   0  0  0  0  0  0  0  0  0  0  0  0 
    6.0518   -1.8068   -1.4197 H   0  0  0  0  0  0  0  0  0  0  0  0 
    6.5245   -1.2391    0.7536 H   0  0  0  0  0  0  0  0  0  0  0  0 
    7.9759   -0.6717   -0.0453 H   0  0  0  0  0  0  0  0  0  0  0  0 
    9.1829   -2.7592    0.6912 H   0  0  0  0  0  0  0  0  0  0  0  0 
    7.7183   -3.3468    1.4407 H   0  0  0  0  0  0  0  0  0  0  0  0 
    9.2146   -0.7728    2.2284 H   0  0  0  0  0  0  0  0  0  0  0  0 
    9.3906   -2.3185    3.0447 H   0  0  0  0  0  0  0  0  0  0  0  0 
    6.8152   -0.6866    2.9104 H   0  0  0  0  0  0  0  0  0  0  0  0 
    7.4754   -0.2881    5.1045 H   0  0  0  0  0  0  0  0  0  0  0  0 
  1  3  1  0  0  0  0 
  1 13  1  0  0  0  0 
  2 17  1  0  0  0  0 
  2 16  1  0  0  0  0 
  3 18  1  0  0  0  0 
  3  4  1  0  0  0  0 
  4 21  1  0  0  0  0 
  4 20  1  0  0  0  0 
  5  4  1  0  0  0  0 
  5  6  1  0  0  0  0 
  6 24  1  0  0  0  0 
  6  7  1  0  0  0  0 
  7 26  1  0  0  0  0 
  7  8  1  0  0  0  0 
  8 29  1  0  0  0  0 
  8  9  1  0  0  0  0 
  9 31  1  0  0  0  0 
  9 10  1  0  0  0  0 
 10 32  1  6  0  0  0 
 10  2  1  0  0  0  0 
 10 11  1  0  0  0  0 
 11 33  1  0  0  0  0 
 12  1  1  0  0  0  0 
 14  1  1  0  0  0  0 
 15  2  1  0  0  0  0 
 19  3  1  0  0  0  0 
 22  5  1  0  0  0  0 
 23  5  1  0  0  0  0 
 25  6  1  0  0  0  0 
 27  7  1  0  0  0  0 
 28  8  1  0  0  0  0 
 30  9  1  0  0  0  0 
M  END 
>  <HBA> 
1 
 
>  <HBD> 
1 
 
>  <TPSA> 
20.23 
 
>  <cid> 
14254 
 
>  <dipole> 
1.52 
 
>  <excitation_energy_1> 
6.369 
 
>  <excitation_energy_2> 
7.108 
 
>  <excitation_energy_3> 
7.18 
 
>  <excitation_energy_4> 
7.366 
 
>  <homo_energy> 
-7.045 
 
>  <homo_lumo_gap> 
9.089 
 
>  <logP> 
3.118 
 
>  <lumo_energy> 
2.044 
 
>  <melting_point> 
-10.6 
 
>  <molecular_refractivity> 
51.35 
 
>  <oscillator_strength_1> 
0.0081 
 
>  <oscillator_strength_2> 
0.0135 
 
>  <oscillator_strength_3> 
0.0206 
 
>  <oscillator_strength_4> 
0.0048 
 
>  <open_babel_can_smiles> 
CCCCCCCC[C@H](O)C 
 
>  <mulliken_charges> 
33 
1   -0.443228 
2   -0.463434 
3   -0.250655 
4   -0.249522 
5   -0.2534 
6   -0.261975 
7   -0.255876 
8   -0.272362 
9   -0.259885 
10   0.145031 
11   -0.63064 
12   0.141567 
13   0.140534 
14   0.146477 
15   0.146484 
16   0.130499 
17   0.154148 
18   0.129827 
19   0.128894 
20   0.13477 
21   0.125866 
22   0.125652 
23   0.131775 
24   0.12571 
25   0.127669 
26   0.130602 
27   0.129247 
28   0.142114 
29   0.128863 
30   0.143049 
31   0.13646 
32   0.111807 
33   0.383932 
 
>  <lowdin_charges> 
33 
1   -0.450004 
2   -0.466247 
3   -0.275207 
4   -0.280742 
5   -0.276756 
6   -0.276166 
7   -0.280687 
8   -0.282188 
9   -0.283339 
10   -0.002278 
11   -0.471218 
12   0.149782 
13   0.146969 
14   0.148394 
15   0.15429 
16   0.144988 
17   0.155892 
18   0.14182 
19   0.139104 
20   0.140167 
21   0.139034 
22   0.139693 
23   0.138116 
24   0.136328 
25   0.143098 
26   0.13986 
27   0.139472 
28   0.147924 
29   0.137437 
30   0.150368 
31   0.148832 
32   0.123365 
33   0.339901 
 
$$$$ 
 
