PCCDB-ID:  7920 
public computational chemistry database (PCCDB) project, http://pccdb.org 
 
 13 13  0  0  0  0  0  0  0  0999 V2000 
    0.9239    0.1843    0.0424 C   0  0  0  0  0  0  0  0  0  0  0  0 
    3.1913   -1.2409    0.0465 C   0  0  0  0  0  0  0  0  0  0  0  0 
    2.4204    0.0563    0.0471 C   0  0  0  0  0  0  0  0  0  0  0  0 
    4.5761   -0.6479    0.0516 C   0  0  0  0  0  0  0  0  0  0  0  0 
    3.2119    1.0741    0.0521 N   0  0  0  0  0  0  0  0  0  0  0  0 
    4.5803    0.6371    0.0547 N   0  0  0  0  0  0  0  0  0  0  0  0 
    5.7253   -1.3552    0.0536 O   0  0  0  0  0  0  0  0  0  0  0  0 
    0.4374   -0.7957    0.0548 H   0  0  0  0  0  0  0  0  0  0  0  0 
    0.5834    0.7247   -0.8478 H   0  0  0  0  0  0  0  0  0  0  0  0 
    0.5806    0.7497    0.9156 H   0  0  0  0  0  0  0  0  0  0  0  0 
    2.9903   -1.8562   -0.8411 H   0  0  0  0  0  0  0  0  0  0  0  0 
    2.9854   -1.8591    0.9308 H   0  0  0  0  0  0  0  0  0  0  0  0 
    5.5201   -2.3019    0.0475 H   0  0  0  0  0  0  0  0  0  0  0  0 
  1  3  1  0  0  0  0 
  1  8  1  0  0  0  0 
  1 10  1  0  0  0  0 
  2  3  1  0  0  0  0 
  2  4  1  0  0  0  0 
  2 12  1  0  0  0  0 
  3  5  2  0  0  0  0 
  4  7  1  0  0  0  0 
  4  6  2  0  0  0  0 
  5  6  1  0  0  0  0 
  9  1  1  0  0  0  0 
 11  2  1  0  0  0  0 
 13  7  1  0  0  0  0 
M  END 
>  <HBA> 
3 
 
>  <HBD> 
1 
 
>  <TPSA> 
41.46 
 
>  <cid> 
7920 
 
>  <dipole> 
6.12 
 
>  <excitation_energy_1> 
4.735 
 
>  <excitation_energy_2> 
5.013 
 
>  <excitation_energy_3> 
5.16 
 
>  <excitation_energy_4> 
5.558 
 
>  <homo_energy> 
-6.444 
 
>  <homo_lumo_gap> 
5.622 
 
>  <logP> 
-0.353 
 
>  <lumo_energy> 
-0.822 
 
>  <melting_point> 
63.78 
 
>  <molecular_refractivity> 
33.16 
 
>  <oscillator_strength_1> 
0.0003 
 
>  <oscillator_strength_2> 
0.1195 
 
>  <oscillator_strength_3> 
0.0002 
 
>  <oscillator_strength_4> 
0.0009 
 
>  <open_babel_can_smiles> 
CC1=NN=C(C1)O 
 
>  <mulliken_charges> 
13 
1   -0.512786 
2   -0.469492 
3   0.335902 
4   0.51937 
5   -0.303107 
6   -0.316352 
7   -0.58251 
8   0.151381 
9   0.185563 
10   0.186041 
11   0.194015 
12   0.19417 
13   0.417804 
 
>  <lowdin_charges> 
13 
1   -0.447541 
2   -0.335369 
3   0.026768 
4   0.104163 
5   -0.111325 
6   -0.149136 
7   -0.335192 
8   0.157261 
9   0.177383 
10   0.177802 
11   0.185026 
12   0.185158 
13   0.365002 
 
$$$$ 
 
