PCCDB-ID:  50216 
public computational chemistry database (PCCDB) project, http://pccdb.org 
 
 29 29  0  0  0  0  0  0  0  0999 V2000 
    8.7099    3.6036   -1.1306 C   0  0  0  0  0  0  0  0  0  0  0  0 
   10.0453    1.5789   -1.8793 C   0  0  0  0  0  0  0  0  0  0  0  0 
    3.5878   -2.6806   -5.9811 C   0  0  0  0  0  0  0  0  0  0  0  0 
    2.9146   -1.5611   -6.4764 C   0  0  0  0  0  0  0  0  0  0  0  0 
    4.5567   -2.5056   -5.0015 C   0  0  0  0  0  0  0  0  0  0  0  0 
    3.2164   -0.2942   -5.9899 C   0  0  0  0  0  0  0  0  0  0  0  0 
    7.5276    1.4872   -1.6368 C   0  0  0  0  0  0  0  0  0  0  0  0 
    7.3247    0.0520   -2.0046 C   0  0  0  0  0  0  0  0  0  0  0  0 
    8.6873    2.1574   -1.5648 C   0  0  0  0  0  0  0  0  0  0  0  0 
    4.8848   -1.2376   -4.4925 C   0  0  0  0  0  0  0  0  0  0  0  0 
    4.1953   -0.1136   -5.0006 C   0  0  0  0  0  0  0  0  0  0  0  0 
    5.9486   -1.2207   -3.4427 C   0  0  0  0  0  0  0  0  0  0  0  0 
    4.4738    1.1324   -4.5307 O   0  0  0  0  0  0  0  0  0  0  0  0 
    6.4599   -2.2364   -3.0025 O   0  0  0  0  0  0  0  0  0  0  0  0 
    6.3011    0.0106   -3.0330 O   0  0  0  0  0  0  0  0  0  0  0  0 
    9.3373    3.7388   -0.2385 H   0  0  0  0  0  0  0  0  0  0  0  0 
    7.7078    3.9784   -0.9017 H   0  0  0  0  0  0  0  0  0  0  0  0 
    9.1433    4.2405   -1.9144 H   0  0  0  0  0  0  0  0  0  0  0  0 
   10.5745    2.2164   -2.6002 H   0  0  0  0  0  0  0  0  0  0  0  0 
   10.0046    0.5680   -2.2911 H   0  0  0  0  0  0  0  0  0  0  0  0 
   10.6712    1.5458   -0.9766 H   0  0  0  0  0  0  0  0  0  0  0  0 
    3.3585   -3.6736   -6.3548 H   0  0  0  0  0  0  0  0  0  0  0  0 
    2.1528   -1.6712   -7.2436 H   0  0  0  0  0  0  0  0  0  0  0  0 
    5.0973   -3.3525   -4.5929 H   0  0  0  0  0  0  0  0  0  0  0  0 
    2.6898    0.5780   -6.3747 H   0  0  0  0  0  0  0  0  0  0  0  0 
    6.6079    2.0136   -1.3836 H   0  0  0  0  0  0  0  0  0  0  0  0 
    6.9692   -0.5394   -1.1516 H   0  0  0  0  0  0  0  0  0  0  0  0 
    8.2245   -0.4386   -2.3825 H   0  0  0  0  0  0  0  0  0  0  0  0 
    3.9034    1.7652   -4.9958 H   0  0  0  0  0  0  0  0  0  0  0  0 
  1 17  1  0  0  0  0 
  1 16  1  0  0  0  0 
  2  9  1  0  0  0  0 
  2 21  1  0  0  0  0 
  3  5  2  0  0  0  0 
  4  6  2  0  0  0  0 
  4  3  1  0  0  0  0 
  5 24  1  0  0  0  0 
  5 10  1  0  0  0  0 
  6 11  1  0  0  0  0 
  7  9  2  0  0  0  0 
  7 26  1  0  0  0  0 
  8  7  1  0  0  0  0 
  8 27  1  0  0  0  0 
  9  1  1  0  0  0  0 
 10 12  1  0  0  0  0 
 11 13  1  0  0  0  0 
 11 10  2  0  0  0  0 
 12 15  1  0  0  0  0 
 12 14  2  0  0  0  0 
 15  8  1  0  0  0  0 
 18  1  1  0  0  0  0 
 19  2  1  0  0  0  0 
 20  2  1  0  0  0  0 
 22  3  1  0  0  0  0 
 23  4  1  0  0  0  0 
 25  6  1  0  0  0  0 
 28  8  1  0  0  0  0 
 29 13  1  0  0  0  0 
M  END 
>  <HBA> 
3 
 
>  <HBD> 
1 
 
>  <TPSA> 
46.53 
 
>  <cid> 
50216 
 
>  <dipole> 
3.22 
 
>  <excitation_energy_1> 
4.525 
 
>  <excitation_energy_2> 
4.652 
 
>  <excitation_energy_3> 
5.046 
 
>  <excitation_energy_4> 
5.391 
 
>  <homo_energy> 
-6.215 
 
>  <homo_lumo_gap> 
5.23 
 
>  <logP> 
2.515 
 
>  <lumo_energy> 
-0.985 
 
>  <melting_point> 
80.79 
 
>  <molecular_refractivity> 
58.5 
 
>  <oscillator_strength_1> 
0.0856 
 
>  <oscillator_strength_2> 
0.0017 
 
>  <oscillator_strength_3> 
0.0106 
 
>  <oscillator_strength_4> 
0.0001 
 
>  <open_babel_can_smiles> 
CC(=CCOC(=O)c1ccccc1O)C 
 
>  <mulliken_charges> 
29 
1   -0.506133 
2   -0.515385 
3   -0.140276 
4   -0.122471 
5   -0.167292 
6   -0.198433 
7   -0.171139 
8   -0.087005 
9   0.190196 
10   0.029916 
11   0.301996 
12   0.609904 
13   -0.615246 
14   -0.504296 
15   -0.461382 
16   0.152362 
17   0.154765 
18   0.153225 
19   0.155139 
20   0.158592 
21   0.157723 
22   0.134023 
23   0.137055 
24   0.167698 
25   0.120532 
26   0.130408 
27   0.165187 
28   0.162306 
29   0.408028 
 
>  <lowdin_charges> 
29 
1   -0.439862 
2   -0.445704 
3   -0.180875 
4   -0.129712 
5   -0.119887 
6   -0.217811 
7   -0.198866 
8   -0.124477 
9   0.004438 
10   -0.078352 
11   0.118324 
12   0.198131 
13   -0.355304 
14   -0.284957 
15   -0.175281 
16   0.154935 
17   0.155916 
18   0.156418 
19   0.158619 
20   0.156886 
21   0.159042 
22   0.160881 
23   0.162012 
24   0.181239 
25   0.154797 
26   0.156554 
27   0.158248 
28   0.155897 
29   0.358749 
 
$$$$ 
 
