PCCDB-ID:  45054 
public computational chemistry database (PCCDB) project, http://pccdb.org 
 
 30 30  0  0  0  0  0  0  0  0999 V2000 
    5.0917   -0.5501    1.2547 C   0  0  0  0  0  0  0  0  0  0  0  0 
    2.1900   -4.3768   -1.0668 C   0  0  0  0  0  0  0  0  0  0  0  0 
    5.7436   -0.9759    2.3349 C   0  0  0  0  0  0  0  0  0  0  0  0 
    3.4164   -4.1889   -0.1704 C   0  0  0  0  0  0  0  0  0  0  0  0 
    8.3684   -4.4451   -1.3925 C   0  0  0  0  0  0  0  0  0  0  0  0 
    8.5806   -3.2513   -0.7040 C   0  0  0  0  0  0  0  0  0  0  0  0 
    7.2655   -5.2316   -1.0656 C   0  0  0  0  0  0  0  0  0  0  0  0 
    7.7073   -2.8480    0.3063 C   0  0  0  0  0  0  0  0  0  0  0  0 
    6.0919   -2.4074    2.6451 C   0  0  0  0  0  0  0  0  0  0  0  0 
    6.3626   -4.8411   -0.0696 C   0  0  0  0  0  0  0  0  0  0  0  0 
    6.6037   -3.6446    0.6360 C   0  0  0  0  0  0  0  0  0  0  0  0 
    5.1972   -5.7224    0.2384 C   0  0  0  0  0  0  0  0  0  0  0  0 
    3.9505   -5.4830    0.2182 N   0  0  0  0  0  0  0  0  0  0  0  0 
    5.6125   -6.9893    0.5378 O   0  0  0  0  0  0  0  0  0  0  0  0 
    5.7202   -3.3430    1.6368 O   0  0  0  0  0  0  0  0  0  0  0  0 
    4.8631    0.5018    1.1116 H   0  0  0  0  0  0  0  0  0  0  0  0 
    4.7633   -1.2376    0.4812 H   0  0  0  0  0  0  0  0  0  0  0  0 
    1.7420   -3.4082   -1.3184 H   0  0  0  0  0  0  0  0  0  0  0  0 
    1.4354   -4.9892   -0.5621 H   0  0  0  0  0  0  0  0  0  0  0  0 
    2.4629   -4.8810   -2.0007 H   0  0  0  0  0  0  0  0  0  0  0  0 
    6.0554   -0.2667    3.1030 H   0  0  0  0  0  0  0  0  0  0  0  0 
    3.1249   -3.6489    0.7399 H   0  0  0  0  0  0  0  0  0  0  0  0 
    4.1597   -3.5612   -0.6859 H   0  0  0  0  0  0  0  0  0  0  0  0 
    9.0524   -4.7608   -2.1744 H   0  0  0  0  0  0  0  0  0  0  0  0 
    9.4304   -2.6206   -0.9513 H   0  0  0  0  0  0  0  0  0  0  0  0 
    7.0918   -6.1714   -1.5807 H   0  0  0  0  0  0  0  0  0  0  0  0 
    7.8702   -1.9065    0.8174 H   0  0  0  0  0  0  0  0  0  0  0  0 
    5.5473   -2.7299    3.5418 H   0  0  0  0  0  0  0  0  0  0  0  0 
    7.1635   -2.5055    2.8721 H   0  0  0  0  0  0  0  0  0  0  0  0 
    4.7870   -7.4966    0.6590 H   0  0  0  0  0  0  0  0  0  0  0  0 
  1  3  2  0  0  0  0 
  2 19  1  0  0  0  0 
  2  4  1  0  0  0  0 
  3  9  1  0  0  0  0 
  3 21  1  0  0  0  0 
  4 13  1  0  0  0  0 
  4 22  1  0  0  0  0 
  5  7  2  0  0  0  0 
  5  6  1  0  0  0  0 
  6  8  2  0  0  0  0 
  7 10  1  0  0  0  0 
  8 11  1  0  0  0  0 
  8 27  1  0  0  0  0 
  9 29  1  0  0  0  0 
  9 28  1  0  0  0  0 
 10 12  1  0  0  0  0 
 10 11  2  0  0  0  0 
 11 15  1  0  0  0  0 
 12 14  1  0  0  0  0 
 13 12  2  0  0  0  0 
 14 30  1  0  0  0  0 
 15  9  1  0  0  0  0 
 16  1  1  0  0  0  0 
 17  1  1  0  0  0  0 
 18  2  1  0  0  0  0 
 20  2  1  0  0  0  0 
 23  4  1  0  0  0  0 
 24  5  1  0  0  0  0 
 25  6  1  0  0  0  0 
 26  7  1  0  0  0  0 
M  END 
>  <HBA> 
3 
 
>  <HBD> 
1 
 
>  <TPSA> 
38.33 
 
>  <cid> 
45054 
 
>  <dipole> 
2.5 
 
>  <excitation_energy_1> 
4.794 
 
>  <excitation_energy_2> 
5.106 
 
>  <excitation_energy_3> 
5.267 
 
>  <excitation_energy_4> 
5.4 
 
>  <homo_energy> 
-6.114 
 
>  <homo_lumo_gap> 
5.616 
 
>  <logP> 
2.392 
 
>  <lumo_energy> 
-0.498 
 
>  <melting_point> 
48.91 
 
>  <molecular_refractivity> 
59.88 
 
>  <oscillator_strength_1> 
0.0607 
 
>  <oscillator_strength_2> 
0.0022 
 
>  <oscillator_strength_3> 
0.0702 
 
>  <oscillator_strength_4> 
0.0084 
 
>  <open_babel_can_smiles> 
C=CCOc1ccccc1/C(=N\CC)/O 
 
>  <mulliken_charges> 
30 
1   -0.327369 
2   -0.434253 
3   -0.090719 
4   -0.136469 
5   -0.133436 
6   -0.134298 
7   -0.160301 
8   -0.184748 
9   -0.078821 
10   0.04912 
11   0.341061 
12   0.421776 
13   -0.44806 
14   -0.593098 
15   -0.522139 
16   0.145905 
17   0.162989 
18   0.132956 
19   0.151395 
20   0.143476 
21   0.134357 
22   0.149934 
23   0.12693 
24   0.131295 
25   0.134261 
26   0.147753 
27   0.144241 
28   0.173417 
29   0.152896 
30   0.399949 
 
>  <lowdin_charges> 
30 
1   -0.329357 
2   -0.447984 
3   -0.175736 
4   -0.197701 
5   -0.176567 
6   -0.140979 
7   -0.132841 
8   -0.206584 
9   -0.124801 
10   -0.05441 
11   0.105179 
12   0.133021 
13   -0.228951 
14   -0.374375 
15   -0.191138 
16   0.162233 
17   0.16881 
18   0.145734 
19   0.154071 
20   0.148399 
21   0.158808 
22   0.148009 
23   0.131088 
24   0.160874 
25   0.160768 
26   0.168362 
27   0.169403 
28   0.165493 
29   0.148366 
30   0.352807 
 
$$$$ 
 
