PCCDB-ID:  52702 
public computational chemistry database (PCCDB) project, http://pccdb.org 
 
 30 30  0  0  1  0  0  0  0  0999 V2000 
    1.1532    0.5878   -1.7471 C   0  0  0  0  0  0  0  0  0  0  0  0 
    2.0091   -0.0858   -0.6642 C   0  0  0  0  0  0  0  0  0  0  0  0 
   -0.2930    0.7908   -1.2725 C   0  0  0  0  0  0  0  0  0  0  0  0 
    1.3631   -1.3816   -0.1264 C   0  0  0  0  0  0  0  0  0  0  0  0 
   -0.9335   -0.5470   -0.8761 C   0  0  0  0  0  0  0  0  0  0  0  0 
   -2.3981   -2.0369    1.9995 C   0  0  0  0  0  0  0  0  0  0  0  0 
   -0.1432   -1.2877    0.2388 C   0  0  0  0  0  0  0  0  0  0  0  0 
   -3.3869   -2.1749    3.1517 C   0  0  2  0  0  0  0  0  0  0  0  0 
   -0.4557   -0.6994    1.6127 C   0  0  0  0  0  0  0  0  0  0  0  0 
   -1.4351   -1.0138    2.3591 N   0  0  0  0  0  0  0  0  0  0  0  0 
   -4.3761   -2.9889    3.1759 N   0  0  0  0  0  0  0  0  0  0  0  0 
   -3.1854   -1.3713    4.2084 O   0  0  0  0  0  0  0  0  0  0  0  0 
    0.3593    0.2757    2.0965 O   0  0  0  0  0  0  0  0  0  0  0  0 
   -4.3859   -3.7356    1.9503 O   0  0  0  0  0  0  0  0  0  0  0  0 
    1.1504   -0.0432   -2.6476 H   0  0  0  0  0  0  0  0  0  0  0  0 
    1.6023    1.5452   -2.0374 H   0  0  0  0  0  0  0  0  0  0  0  0 
    2.2019    0.6461    0.1382 H   0  0  0  0  0  0  0  0  0  0  0  0 
    3.0041   -0.3277   -1.0569 H   0  0  0  0  0  0  0  0  0  0  0  0 
   -0.8879    1.2620   -2.0639 H   0  0  0  0  0  0  0  0  0  0  0  0 
   -0.3125    1.4825   -0.4179 H   0  0  0  0  0  0  0  0  0  0  0  0 
    1.9370   -1.7734    0.7229 H   0  0  0  0  0  0  0  0  0  0  0  0 
    1.4430   -2.1378   -0.9180 H   0  0  0  0  0  0  0  0  0  0  0  0 
   -0.9614   -1.2020   -1.7581 H   0  0  0  0  0  0  0  0  0  0  0  0 
   -1.9728   -0.3992   -0.5627 H   0  0  0  0  0  0  0  0  0  0  0  0 
   -2.9643   -1.7979    1.0891 H   0  0  0  0  0  0  0  0  0  0  0  0 
   -1.9376   -3.0193    1.8208 H   0  0  0  0  0  0  0  0  0  0  0  0 
   -0.5224   -2.3148    0.2780 H   0  0  0  0  0  0  0  0  0  0  0  0 
   -2.3875   -0.8439    3.9603 H   0  0  0  0  0  0  0  0  0  0  0  0 
    1.0937    0.4189    1.4827 H   0  0  0  0  0  0  0  0  0  0  0  0 
   -5.1613   -4.2991    2.0860 H   0  0  0  0  0  0  0  0  0  0  0  0 
  1  3  1  0  0  0  0 
  1  2  1  0  0  0  0 
  2  4  1  0  0  0  0 
  2 17  1  0  0  0  0 
  3  5  1  0  0  0  0 
  3 20  1  0  0  0  0 
  4  7  1  0  0  0  0 
  4 21  1  0  0  0  0 
  5 24  1  0  0  0  0 
  5  7  1  0  0  0  0 
  6 10  1  0  0  0  0 
  6  8  1  0  0  0  0 
  7 27  1  0  0  0  0 
  7  9  1  0  0  0  0 
  8 11  1  6  0  0  0 
  8 12  1  0  0  0  0 
  9 13  1  0  0  0  0 
  9 10  2  0  0  0  0 
 14 30  1  0  0  0  0 
 14 11  1  0  0  0  0 
 15  1  1  0  0  0  0 
 16  1  1  0  0  0  0 
 18  2  1  0  0  0  0 
 19  3  1  0  0  0  0 
 22  4  1  0  0  0  0 
 23  5  1  0  0  0  0 
 25  6  1  0  0  0  0 
 26  6  1  0  0  0  0 
 28 12  1  0  0  0  0 
 29 13  1  0  0  0  0 
M  RAD  2   8   2  11   2 
M  END 
>  <HBA> 
5 
 
>  <HBD> 
3 
 
>  <TPSA> 
78.43 
 
>  <cid> 
52702 
 
>  <dipole> 
7.58 
 
>  <excitation_energy_1> 
4.899 
 
>  <excitation_energy_2> 
5.042 
 
>  <excitation_energy_3> 
5.393 
 
>  <excitation_energy_4> 
5.677 
 
>  <homo_energy> 
-5.54 
 
>  <homo_lumo_gap> 
5.554 
 
>  <logP> 
0.97 
 
>  <lumo_energy> 
0.014 
 
>  <melting_point> 
145.07 
 
>  <molecular_refractivity> 
50.0 
 
>  <oscillator_strength_1> 
0.001 
 
>  <oscillator_strength_2> 
0.0009 
 
>  <oscillator_strength_3> 
0.0011 
 
>  <oscillator_strength_4> 
0.0021 
 
>  <open_babel_can_smiles> 
O[N][C](C/N=C(\C1CCCCC1)/O)O 
 
>  <mulliken_charges> 
30 
1   -0.254349 
2   -0.296913 
3   -0.274383 
4   -0.303445 
5   -0.267728 
6   -0.199416 
7   -0.182074 
8   0.524776 
9   0.495892 
10   -0.49025 
11   -0.280866 
12   -0.60158 
13   -0.590336 
14   -0.545215 
15   0.138492 
16   0.143908 
17   0.132884 
18   0.154569 
19   0.147647 
20   0.142539 
21   0.155968 
22   0.154268 
23   0.143556 
24   0.158772 
25   0.183509 
26   0.182078 
27   0.161029 
28   0.431082 
29   0.421549 
30   0.414036 
 
>  <lowdin_charges> 
30 
1   -0.278908 
2   -0.284663 
3   -0.285456 
4   -0.29302 
5   -0.271994 
6   -0.230621 
7   -0.162219 
8   0.09142 
9   0.143593 
10   -0.229643 
11   -0.12205 
12   -0.362042 
13   -0.357984 
14   -0.414552 
15   0.143512 
16   0.150528 
17   0.133632 
18   0.156019 
19   0.154468 
20   0.144479 
21   0.154644 
22   0.157688 
23   0.147958 
24   0.154676 
25   0.166071 
26   0.165001 
27   0.164511 
28   0.359103 
29   0.35249 
30   0.353355 
 
$$$$ 
 
