PCCDB-ID:  30386 
public computational chemistry database (PCCDB) project, http://pccdb.org 
 
 18 19  0  0  0  0  0  0  0  0999 V2000 
    2.4343   -0.6767    0.0040 C   0  0  0  0  0  0  0  0  0  0  0  0 
    1.2562   -1.3863   -0.0090 C   0  0  0  0  0  0  0  0  0  0  0  0 
    2.4284    0.7393    0.0103 C   0  0  0  0  0  0  0  0  0  0  0  0 
   -1.2682    1.3778   -0.0158 C   0  0  0  0  0  0  0  0  0  0  0  0 
   -2.4089    0.6074   -0.0295 C   0  0  0  0  0  0  0  0  0  0  0  0 
   -1.2381   -1.3580   -0.0279 C   0  0  0  0  0  0  0  0  0  0  0  0 
    0.0187   -0.6911   -0.0140 C   0  0  0  0  0  0  0  0  0  0  0  0 
   -0.0062    0.7350   -0.0073 C   0  0  0  0  0  0  0  0  0  0  0  0 
    1.2369    1.4358    0.0057 C   0  0  0  0  0  0  0  0  0  0  0  0 
   -2.4083   -0.7540   -0.0355 N   0  0  0  0  0  0  0  0  0  0  0  0 
    1.1623    2.7998    0.0121 O   0  0  0  0  0  0  0  0  0  0  0  0 
    3.3882   -1.1964    0.0078 H   0  0  0  0  0  0  0  0  0  0  0  0 
    1.2570   -2.4728   -0.0151 H   0  0  0  0  0  0  0  0  0  0  0  0 
    3.3720    1.2819    0.0200 H   0  0  0  0  0  0  0  0  0  0  0  0 
   -1.3263    2.4605   -0.0113 H   0  0  0  0  0  0  0  0  0  0  0  0 
   -3.3913    1.0744   -0.0363 H   0  0  0  0  0  0  0  0  0  0  0  0 
   -1.2508   -2.4490   -0.0325 H   0  0  0  0  0  0  0  0  0  0  0  0 
    2.0607    3.1654    0.0141 H   0  0  0  0  0  0  0  0  0  0  0  0 
  1 12  1  0  0  0  0 
  1  3  1  0  0  0  0 
  2  1  2  0  0  0  0 
  3 14  1  0  0  0  0 
  4 15  1  0  0  0  0 
  4  8  2  0  0  0  0 
  5  4  1  0  0  0  0 
  6  7  2  0  0  0  0 
  7  2  1  0  0  0  0 
  7  8  1  0  0  0  0 
  8  9  1  0  0  0  0 
  9  3  2  0  0  0  0 
  9 11  1  0  0  0  0 
 10  5  2  0  0  0  0 
 10  6  1  0  0  0  0 
 11 18  1  0  0  0  0 
 13  2  1  0  0  0  0 
 16  5  1  0  0  0  0 
 17  6  1  0  0  0  0 
M  END 
>  <HBA> 
2 
 
>  <HBD> 
1 
 
>  <TPSA> 
33.12 
 
>  <cid> 
30386 
 
>  <dipole> 
3.85 
 
>  <excitation_energy_1> 
4.082 
 
>  <excitation_energy_2> 
4.371 
 
>  <excitation_energy_3> 
4.449 
 
>  <excitation_energy_4> 
4.924 
 
>  <homo_energy> 
-5.793 
 
>  <homo_lumo_gap> 
4.596 
 
>  <logP> 
1.94 
 
>  <lumo_energy> 
-1.197 
 
>  <melting_point> 
104.13 
 
>  <molecular_refractivity> 
43.77 
 
>  <oscillator_strength_1> 
0.0781 
 
>  <oscillator_strength_2> 
0.0015 
 
>  <oscillator_strength_3> 
0.0514 
 
>  <oscillator_strength_4> 
0.0001 
 
>  <open_babel_can_smiles> 
Oc1cccc2c1ccnc2 
 
>  <mulliken_charges> 
18 
1   -0.139115 
2   -0.192487 
3   -0.196508 
4   -0.178407 
5   0.023191 
6   -0.010771 
7   0.105255 
8   0.103228 
9   0.297304 
10   -0.414363 
11   -0.638009 
12   0.136481 
13   0.135152 
14   0.121966 
15   0.154551 
16   0.14005 
17   0.140142 
18   0.412341 
 
>  <lowdin_charges> 
18 
1   -0.146416 
2   -0.168064 
3   -0.214773 
4   -0.164173 
5   -0.101008 
6   -0.083707 
7   -0.015417 
8   -0.011652 
9   0.104116 
10   -0.148055 
11   -0.372175 
12   0.16218 
13   0.159928 
14   0.156302 
15   0.172393 
16   0.15721 
17   0.152539 
18   0.360772 
 
$$$$ 
 
