PCCDB-ID:  11564 
public computational chemistry database (PCCDB) project, http://pccdb.org 
 
 24 24  0  0  1  0  0  0  0  0999 V2000 
    0.8448   -0.0324   -0.0911 C   0  0  0  0  0  0  0  0  0  0  0  0 
    4.9299    2.5794    1.4370 C   0  0  0  0  0  0  0  0  0  0  0  0 
    4.4702   -1.2442    0.7441 C   0  0  0  0  0  0  0  0  0  0  0  0 
    2.9373   -1.2685    0.6578 C   0  0  0  0  0  0  0  0  0  0  0  0 
    4.9755    0.0360    1.4253 C   0  0  0  0  0  0  0  0  0  0  0  0 
    2.9050    1.2587    0.6510 C   0  0  0  0  0  0  0  0  0  0  0  0 
    2.3769   -0.0140   -0.0366 C   0  0  2  0  0  0  0  0  0  0  0  0 
    4.4417    1.3055    0.7375 C   0  0  1  0  0  0  0  0  0  0  0  0 
    0.4751   -0.9242   -0.6117 H   0  0  0  0  0  0  0  0  0  0  0  0 
    0.4533    0.8483   -0.6146 H   0  0  0  0  0  0  0  0  0  0  0  0 
    0.4160   -0.0360    0.9195 H   0  0  0  0  0  0  0  0  0  0  0  0 
    6.0254    2.6204    1.4721 H   0  0  0  0  0  0  0  0  0  0  0  0 
    4.5625    2.6254    2.4705 H   0  0  0  0  0  0  0  0  0  0  0  0 
    4.5768    3.4795    0.9191 H   0  0  0  0  0  0  0  0  0  0  0  0 
    4.8906   -1.3033   -0.2708 H   0  0  0  0  0  0  0  0  0  0  0  0 
    4.8343   -2.1294    1.2814 H   0  0  0  0  0  0  0  0  0  0  0  0 
    2.5166   -1.3299    1.6737 H   0  0  0  0  0  0  0  0  0  0  0  0 
    2.6009   -2.1705    0.1288 H   0  0  0  0  0  0  0  0  0  0  0  0 
    6.0737    0.0511    1.4388 H   0  0  0  0  0  0  0  0  0  0  0  0 
    4.6521    0.0396    2.4780 H   0  0  0  0  0  0  0  0  0  0  0  0 
    2.4887    1.3123    1.6702 H   0  0  0  0  0  0  0  0  0  0  0  0 
    2.5349    2.1483    0.1217 H   0  0  0  0  0  0  0  0  0  0  0  0 
    2.7533   -0.0126   -1.0727 H   0  0  0  0  0  0  0  0  0  0  0  0 
    4.8326    1.3135   -0.2931 H   0  0  0  0  0  0  0  0  0  0  0  0 
  1  7  1  0  0  0  0 
  1 11  1  0  0  0  0 
  2 12  1  0  0  0  0 
  2 13  1  0  0  0  0 
  3 16  1  0  0  0  0 
  3  5  1  0  0  0  0 
  4  3  1  0  0  0  0 
  4 17  1  0  0  0  0 
  5 19  1  0  0  0  0 
  5 20  1  0  0  0  0 
  6  8  1  0  0  0  0 
  6 21  1  0  0  0  0 
  7 23  1  6  0  0  0 
  7  6  1  0  0  0  0 
  7  4  1  0  0  0  0 
  8 24  1  6  0  0  0 
  8  5  1  0  0  0  0 
  8  2  1  0  0  0  0 
  9  1  1  0  0  0  0 
 10  1  1  0  0  0  0 
 14  2  1  0  0  0  0 
 15  3  1  0  0  0  0 
 18  4  1  0  0  0  0 
 22  6  1  0  0  0  0 
M  END 
>  <HBA> 
0 
 
>  <HBD> 
0 
 
>  <TPSA> 
0.0 
 
>  <cid> 
11564 
 
>  <dipole> 
0.12 
 
>  <excitation_energy_1> 
7.334 
 
>  <excitation_energy_2> 
7.404 
 
>  <excitation_energy_3> 
7.723 
 
>  <excitation_energy_4> 
7.733 
 
>  <homo_energy> 
-7.807 
 
>  <homo_lumo_gap> 
10.158 
 
>  <logP> 
2.833 
 
>  <lumo_energy> 
2.351 
 
>  <melting_point> 
-5.31 
 
>  <molecular_refractivity> 
38.46 
 
>  <oscillator_strength_1> 
0.0091 
 
>  <oscillator_strength_2> 
0.0452 
 
>  <oscillator_strength_3> 
0.0017 
 
>  <oscillator_strength_4> 
0.0227 
 
>  <open_babel_can_smiles> 
C[C@@H]1CCC[C@@H](C1)C 
 
>  <mulliken_charges> 
24 
1   -0.444539 
2   -0.444819 
3   -0.26368 
4   -0.252404 
5   -0.252333 
6   -0.250252 
7   -0.072835 
8   -0.072714 
9   0.138311 
10   0.138347 
11   0.137767 
12   0.138368 
13   0.137784 
14   0.138384 
15   0.126326 
16   0.128486 
17   0.122805 
18   0.125691 
19   0.125669 
20   0.122787 
21   0.119132 
22   0.123017 
23   0.11536 
24   0.115342 
 
>  <lowdin_charges> 
24 
1   -0.444241 
2   -0.440647 
3   -0.277855 
4   -0.277966 
5   -0.274503 
6   -0.278161 
7   -0.12413 
8   -0.124527 
9   0.147719 
10   0.147796 
11   0.144358 
12   0.145129 
13   0.143928 
14   0.147547 
15   0.136186 
16   0.143367 
17   0.134834 
18   0.141571 
19   0.13889 
20   0.134183 
21   0.133786 
22   0.140246 
23   0.131217 
24   0.131272 
 
$$$$ 
 
