PCCDB-ID:  8413 
public computational chemistry database (PCCDB) project, http://pccdb.org 
 
 32 33  0  0  0  0  0  0  0  0999 V2000 
    0.9349   -0.0936   -0.0055 C   0  0  0  0  0  0  0  0  0  0  0  0 
    8.4390    3.7737   -2.1067 C   0  0  0  0  0  0  0  0  0  0  0  0 
    5.2473   -0.0137   -0.0113 C   0  0  0  0  0  0  0  0  0  0  0  0 
    4.7603    3.6762    0.1426 C   0  0  0  0  0  0  0  0  0  0  0  0 
    4.5742   -1.2178    0.1642 C   0  0  0  0  0  0  0  0  0  0  0  0 
    5.4263    4.8816   -0.0495 C   0  0  0  0  0  0  0  0  0  0  0  0 
    3.1453    1.1197   -0.1955 C   0  0  0  0  0  0  0  0  0  0  0  0 
    6.4550    2.5520   -1.1228 C   0  0  0  0  0  0  0  0  0  0  0  0 
    2.4440   -0.0719   -0.0119 C   0  0  0  0  0  0  0  0  0  0  0  0 
    7.1493    3.7451   -1.3231 C   0  0  0  0  0  0  0  0  0  0  0  0 
    4.5487    1.1890   -0.2003 C   0  0  0  0  0  0  0  0  0  0  0  0 
    5.2561    2.4776   -0.3938 C   0  0  0  0  0  0  0  0  0  0  0  0 
    3.1728   -1.2685    0.1691 C   0  0  0  0  0  0  0  0  0  0  0  0 
    6.6231    4.9376   -0.7783 C   0  0  0  0  0  0  0  0  0  0  0  0 
    2.5035   -2.4766    0.4146 N   0  0  0  0  0  0  0  0  0  0  0  0 
    7.3220    6.1467   -0.9095 N   0  0  0  0  0  0  0  0  0  0  0  0 
    0.5268    0.9154   -0.1148 H   0  0  0  0  0  0  0  0  0  0  0  0 
    0.5423   -0.5174    0.9285 H   0  0  0  0  0  0  0  0  0  0  0  0 
    0.5239   -0.6985   -0.8285 H   0  0  0  0  0  0  0  0  0  0  0  0 
    8.7308    2.7673   -2.4210 H   0  0  0  0  0  0  0  0  0  0  0  0 
    9.2616    4.1937   -1.5125 H   0  0  0  0  0  0  0  0  0  0  0  0 
    8.3584    4.3857   -3.0183 H   0  0  0  0  0  0  0  0  0  0  0  0 
    6.3334   -0.0053    0.0207 H   0  0  0  0  0  0  0  0  0  0  0  0 
    3.8512    3.6632    0.7378 H   0  0  0  0  0  0  0  0  0  0  0  0 
    5.1395   -2.1352    0.3185 H   0  0  0  0  0  0  0  0  0  0  0  0 
    5.0256    5.7957    0.3850 H   0  0  0  0  0  0  0  0  0  0  0  0 
    2.5737    2.0296   -0.3640 H   0  0  0  0  0  0  0  0  0  0  0  0 
    6.8539    1.6456   -1.5726 H   0  0  0  0  0  0  0  0  0  0  0  0 
    3.0656   -3.3016    0.2414 H   0  0  0  0  0  0  0  0  0  0  0  0 
    1.5973   -2.5597   -0.0298 H   0  0  0  0  0  0  0  0  0  0  0  0 
    6.7521    6.9705   -0.7570 H   0  0  0  0  0  0  0  0  0  0  0  0 
    7.8623    6.2365   -1.7614 H   0  0  0  0  0  0  0  0  0  0  0  0 
  1 18  1  0  0  0  0 
  2 21  1  0  0  0  0 
  2 10  1  0  0  0  0 
  3 23  1  0  0  0  0 
  3  5  2  0  0  0  0 
  4 24  1  0  0  0  0 
  5 13  1  0  0  0  0 
  5 25  1  0  0  0  0 
  6  4  1  0  0  0  0 
  6 26  1  0  0  0  0 
  7  9  1  0  0  0  0 
  8 12  1  0  0  0  0 
  9  1  1  0  0  0  0 
  9 13  2  0  0  0  0 
 10  8  2  0  0  0  0 
 10 14  1  0  0  0  0 
 11  7  2  0  0  0  0 
 11  3  1  0  0  0  0 
 12 11  1  0  0  0  0 
 12  4  2  0  0  0  0 
 13 15  1  0  0  0  0 
 14  6  2  0  0  0  0 
 16 14  1  0  0  0  0 
 16 31  1  0  0  0  0 
 17  1  1  0  0  0  0 
 19  1  1  0  0  0  0 
 20  2  1  0  0  0  0 
 22  2  1  0  0  0  0 
 27  7  1  0  0  0  0 
 28  8  1  0  0  0  0 
 29 15  1  0  0  0  0 
 30 15  1  0  0  0  0 
 32 16  1  0  0  0  0 
M  END 
>  <HBA> 
2 
 
>  <HBD> 
2 
 
>  <TPSA> 
52.04 
 
>  <cid> 
8413 
 
>  <dipole> 
2.15 
 
>  <excitation_energy_1> 
4.209 
 
>  <excitation_energy_2> 
4.226 
 
>  <excitation_energy_3> 
4.326 
 
>  <excitation_energy_4> 
4.331 
 
>  <homo_energy> 
-4.71 
 
>  <homo_lumo_gap> 
4.778 
 
>  <logP> 
4.297 
 
>  <lumo_energy> 
0.068 
 
>  <melting_point> 
150.58 
 
>  <molecular_refractivity> 
70.62 
 
>  <oscillator_strength_1> 
0.0047 
 
>  <oscillator_strength_2> 
0.1501 
 
>  <oscillator_strength_3> 
0.0145 
 
>  <oscillator_strength_4> 
0.4093 
 
>  <open_babel_can_smiles> 
Nc1ccc(cc1C)c1ccc(c(c1)C)N 
 
>  <mulliken_charges> 
32 
1   -0.552844 
2   -0.552862 
3   -0.190592 
4   -0.190518 
5   -0.176 
6   -0.176017 
7   -0.262307 
8   -0.262055 
9   0.169603 
10   0.169515 
11   0.100702 
12   0.100508 
13   0.240749 
14   0.240782 
15   -0.791365 
16   -0.791368 
17   0.159113 
18   0.167234 
19   0.145389 
20   0.159096 
21   0.167254 
22   0.145465 
23   0.124023 
24   0.124071 
25   0.112004 
26   0.11202 
27   0.117713 
28   0.117649 
29   0.316749 
30   0.319783 
31   0.316747 
32   0.319757 
 
>  <lowdin_charges> 
32 
1   -0.445599 
2   -0.445386 
3   -0.15664 
4   -0.158252 
5   -0.199603 
6   -0.200084 
7   -0.167206 
8   -0.167015 
9   -0.036071 
10   -0.035838 
11   -0.022877 
12   -0.023286 
13   0.045898 
14   0.045902 
15   -0.492087 
16   -0.491839 
17   0.159634 
18   0.160252 
19   0.14893 
20   0.159704 
21   0.160861 
22   0.148144 
23   0.154211 
24   0.15617 
25   0.15021 
26   0.150254 
27   0.153529 
28   0.153559 
29   0.27345 
30   0.273941 
31   0.273255 
32   0.273878 
 
$$$$ 
 
