PCCDB-ID:  61875 
public computational chemistry database (PCCDB) project, http://pccdb.org 
 
 29 28  0  0  0  0  0  0  0  0999 V2000 
    3.3661    2.2642    0.9976 C   0  0  0  0  0  0  0  0  0  0  0  0 
    4.5614    1.3065    0.9593 C   0  0  0  0  0  0  0  0  0  0  0  0 
    4.1678   -0.1387    0.6272 C   0  0  0  0  0  0  0  0  0  0  0  0 
    5.3583   -1.1051    0.5912 C   0  0  0  0  0  0  0  0  0  0  0  0 
    4.9550   -2.5550    0.2611 C   0  0  0  0  0  0  0  0  0  0  0  0 
    6.1305   -3.4925    0.1819 C   0  0  0  0  0  0  0  0  0  0  0  0 
    6.3169   -4.5521    0.9747 C   0  0  0  0  0  0  0  0  0  0  0  0 
    7.4706   -5.5211    0.9602 C   0  0  0  0  0  0  0  0  0  0  0  0 
    8.5523   -5.2485   -0.0823 C   0  0  0  0  0  0  0  0  0  0  0  0 
    9.6858   -6.2480   -0.0606 C   0  0  0  0  0  0  0  0  0  0  0  0 
    9.7616   -7.1961    0.6899 O   0  0  0  0  0  0  0  0  0  0  0  0 
    3.6792    3.2869    1.2366 H   0  0  0  0  0  0  0  0  0  0  0  0 
    2.6345    1.9544    1.7541 H   0  0  0  0  0  0  0  0  0  0  0  0 
    2.8486    2.2916    0.0306 H   0  0  0  0  0  0  0  0  0  0  0  0 
    5.0776    1.3268    1.9297 H   0  0  0  0  0  0  0  0  0  0  0  0 
    5.2922    1.6618    0.2189 H   0  0  0  0  0  0  0  0  0  0  0  0 
    3.6528   -0.1600   -0.3450 H   0  0  0  0  0  0  0  0  0  0  0  0 
    3.4342   -0.4928    1.3668 H   0  0  0  0  0  0  0  0  0  0  0  0 
    5.8762   -1.0908    1.5603 H   0  0  0  0  0  0  0  0  0  0  0  0 
    6.0902   -0.7543   -0.1515 H   0  0  0  0  0  0  0  0  0  0  0  0 
    4.4184   -2.5573   -0.7008 H   0  0  0  0  0  0  0  0  0  0  0  0 
    4.2420   -2.9185    1.0134 H   0  0  0  0  0  0  0  0  0  0  0  0 
    6.8696   -3.2512   -0.5838 H   0  0  0  0  0  0  0  0  0  0  0  0 
    5.5593   -4.7658    1.7316 H   0  0  0  0  0  0  0  0  0  0  0  0 
    7.0868   -6.5410    0.8159 H   0  0  0  0  0  0  0  0  0  0  0  0 
    7.9354   -5.5450    1.9561 H   0  0  0  0  0  0  0  0  0  0  0  0 
    8.9947   -4.2483    0.0461 H   0  0  0  0  0  0  0  0  0  0  0  0 
    8.1386   -5.2454   -1.1029 H   0  0  0  0  0  0  0  0  0  0  0  0 
   10.4875   -6.0570   -0.8106 H   0  0  0  0  0  0  0  0  0  0  0  0 
  1 12  1  0  0  0  0 
  1 13  1  0  0  0  0 
  2  1  1  0  0  0  0 
  2 15  1  0  0  0  0 
  3  2  1  0  0  0  0 
  3 18  1  0  0  0  0 
  4  3  1  0  0  0  0 
  4 19  1  0  0  0  0 
  5  4  1  0  0  0  0 
  5 22  1  0  0  0  0 
  6  5  1  0  0  0  0 
  6  7  2  0  0  0  0 
  7 24  1  0  0  0  0 
  8  7  1  0  0  0  0 
  8 26  1  0  0  0  0 
  9 10  1  0  0  0  0 
  9 27  1  0  0  0  0 
  9  8  1  0  0  0  0 
 10 11  2  0  0  0  0 
 14  1  1  0  0  0  0 
 16  2  1  0  0  0  0 
 17  3  1  0  0  0  0 
 20  4  1  0  0  0  0 
 21  5  1  0  0  0  0 
 23  6  1  0  0  0  0 
 25  8  1  0  0  0  0 
 28  9  1  0  0  0  0 
 29 10  1  0  0  0  0 
M  END 
>  <HBA> 
1 
 
>  <HBD> 
0 
 
>  <TPSA> 
17.07 
 
>  <cid> 
61875 
 
>  <dipole> 
2.54 
 
>  <excitation_energy_1> 
4.346 
 
>  <excitation_energy_2> 
5.147 
 
>  <excitation_energy_3> 
6.102 
 
>  <excitation_energy_4> 
6.297 
 
>  <homo_energy> 
-6.561 
 
>  <homo_lumo_gap> 
6.019 
 
>  <logP> 
3.102 
 
>  <lumo_energy> 
-0.542 
 
>  <melting_point> 
12.3 
 
>  <molecular_refractivity> 
49.91 
 
>  <oscillator_strength_1> 
0.0002 
 
>  <oscillator_strength_2> 
0.0047 
 
>  <oscillator_strength_3> 
0.0169 
 
>  <oscillator_strength_4> 
0.0038 
 
>  <open_babel_can_smiles> 
CCCCC/C=C/CCC=O 
 
>  <mulliken_charges> 
29 
1   -0.44148 
2   -0.246867 
3   -0.245585 
4   -0.252418 
5   -0.304112 
6   -0.085902 
7   -0.120489 
8   -0.287792 
9   -0.357043 
10   0.25229 
11   -0.382631 
12   0.142106 
13   0.141713 
14   0.141247 
15   0.131162 
16   0.129739 
17   0.126674 
18   0.127958 
19   0.135272 
20   0.126468 
21   0.136941 
22   0.135862 
23   0.112335 
24   0.119531 
25   0.162432 
26   0.161682 
27   0.167709 
28   0.168054 
29   0.105143 
 
>  <lowdin_charges> 
29 
1   -0.444113 
2   -0.272711 
3   -0.275678 
4   -0.27423 
5   -0.270139 
6   -0.176169 
7   -0.172441 
8   -0.268467 
9   -0.311762 
10   0.055332 
11   -0.218857 
12   0.148553 
13   0.147287 
14   0.145971 
15   0.139027 
16   0.139592 
17   0.136992 
18   0.138984 
19   0.14147 
20   0.138306 
21   0.14511 
22   0.145518 
23   0.144298 
24   0.149211 
25   0.160301 
26   0.160311 
27   0.16587 
28   0.165732 
29   0.116702 
 
$$$$ 
 
