PCCDB-ID:  19904 
public computational chemistry database (PCCDB) project, http://pccdb.org 
 
 20 20  0  0  0  0  0  0  0  0999 V2000 
    0.8066   -0.2049    0.0267 C   0  0  0  0  0  0  0  0  0  0  0  0 
    6.5850   -1.6929   -0.1194 C   0  0  0  0  0  0  0  0  0  0  0  0 
    3.7324    3.7088    0.4408 C   0  0  0  0  0  0  0  0  0  0  0  0 
    2.2956   -0.0084    0.0555 C   0  0  0  0  0  0  0  0  0  0  0  0 
    4.3882   -0.8181   -0.0288 C   0  0  0  0  0  0  0  0  0  0  0  0 
    4.0647    1.3776    0.1991 C   0  0  0  0  0  0  0  0  0  0  0  0 
    3.0698   -1.0851   -0.0564 N   0  0  0  0  0  0  0  0  0  0  0  0 
    2.7381    1.2591    0.1872 N   0  0  0  0  0  0  0  0  0  0  0  0 
    4.9526    0.3793    0.0959 N   0  0  0  0  0  0  0  0  0  0  0  0 
    5.1649   -1.8965   -0.1402 O   0  0  0  0  0  0  0  0  0  0  0  0 
    4.6176    2.5862    0.3237 O   0  0  0  0  0  0  0  0  0  0  0  0 
    0.5629   -1.2679    0.0026 H   0  0  0  0  0  0  0  0  0  0  0  0 
    0.3836    0.2856   -0.8578 H   0  0  0  0  0  0  0  0  0  0  0  0 
    0.3475    0.2655    0.9026 H   0  0  0  0  0  0  0  0  0  0  0  0 
    7.0142   -2.6898   -0.2262 H   0  0  0  0  0  0  0  0  0  0  0  0 
    6.8991   -1.2380    0.8237 H   0  0  0  0  0  0  0  0  0  0  0  0 
    6.8983   -1.0488   -0.9453 H   0  0  0  0  0  0  0  0  0  0  0  0 
    4.3878    4.5756    0.5353 H   0  0  0  0  0  0  0  0  0  0  0  0 
    3.0944    3.6123    1.3231 H   0  0  0  0  0  0  0  0  0  0  0  0 
    3.1003    3.8010   -0.4463 H   0  0  0  0  0  0  0  0  0  0  0  0 
  1  4  1  0  0  0  0 
  1 14  1  0  0  0  0 
  2 16  1  0  0  0  0 
  3 18  1  0  0  0  0 
  3 19  1  0  0  0  0 
  4  8  1  0  0  0  0 
  5  9  2  0  0  0  0 
  6 11  1  0  0  0  0 
  7  5  2  0  0  0  0 
  7  4  2  0  0  0  0 
  8  6  2  0  0  0  0 
  9  6  2  0  0  0  0 
 10  2  1  0  0  0  0 
 10  5  1  0  0  0  0 
 11  3  1  0  0  0  0 
 12  1  1  0  0  0  0 
 13  1  1  0  0  0  0 
 15  2  1  0  0  0  0 
 17  2  1  0  0  0  0 
 20  3  1  0  0  0  0 
M  END 
>  <HBA> 
5 
 
>  <HBD> 
0 
 
>  <TPSA> 
57.13 
 
>  <cid> 
19904 
 
>  <dipole> 
1.59 
 
>  <excitation_energy_1> 
5.11 
 
>  <excitation_energy_2> 
5.279 
 
>  <excitation_energy_3> 
5.623 
 
>  <excitation_energy_4> 
5.633 
 
>  <homo_energy> 
-7.249 
 
>  <homo_lumo_gap> 
6.514 
 
>  <logP> 
0.197 
 
>  <lumo_energy> 
-0.735 
 
>  <melting_point> 
65.89 
 
>  <molecular_refractivity> 
37.78 
 
>  <oscillator_strength_1> 
0.0018 
 
>  <oscillator_strength_2> 
0.0034 
 
>  <oscillator_strength_3> 
0.001 
 
>  <oscillator_strength_4> 
0.0406 
 
>  <open_babel_can_smiles> 
CO[C]1=NC(=[N]=[C](=[N]=1)OC)C 
 
>  <mulliken_charges> 
20 
1   -0.504622 
2   -0.211168 
3   -0.20851 
4   0.44048 
5   0.672496 
6   0.6723 
7   -0.476028 
8   -0.508922 
9   -0.511656 
10   -0.45613 
11   -0.459443 
12   0.180017 
13   0.176193 
14   0.174626 
15   0.168168 
16   0.172087 
17   0.172232 
18   0.167885 
19   0.170129 
20   0.169866 
 
>  <lowdin_charges> 
20 
1   -0.445955 
2   -0.273074 
3   -0.274924 
4   0.127343 
5   0.173029 
6   0.174444 
7   -0.200357 
8   -0.233537 
9   -0.215553 
10   -0.156079 
11   -0.15955 
12   0.171261 
13   0.174879 
14   0.173648 
15   0.161454 
16   0.160471 
17   0.161274 
18   0.162152 
19   0.15957 
20   0.159505 
 
$$$$ 
 
