PCCDB-ID:  27883 
public computational chemistry database (PCCDB) project, http://pccdb.org 
 
 18 18  0  0  1  0  0  0  0  0999 V2000 
    0.7613    0.0861   -0.2216 C   0  0  0  0  0  0  0  0  0  0  0  0 
    3.0304   -0.3494    2.9514 C   0  0  0  0  0  0  0  0  0  0  0  0 
    2.4897   -1.5581    2.1836 C   0  0  0  0  0  0  0  0  0  0  0  0 
    2.5055    0.9914    2.4302 C   0  0  0  0  0  0  0  0  0  0  0  0 
    2.2816   -0.0152   -0.1801 C   0  0  2  0  0  0  0  0  0  0  0  0 
    2.2867    2.6763    0.3446 O   0  0  0  0  0  0  0  0  0  0  0  0 
    2.9968   -1.5903    0.4188 S   0  0  0  0  0  0  0  0  0  0  0  0 
    3.0707    1.4358    0.7214 S   0  0  1  0  0  0  0  0  0  0  0  0 
    0.3629   -0.5878   -0.9861 H   0  0  0  0  0  0  0  0  0  0  0  0 
    0.4790    1.1156   -0.4673 H   0  0  0  0  0  0  0  0  0  0  0  0 
    0.2981   -0.1763    0.7343 H   0  0  0  0  0  0  0  0  0  0  0  0 
    4.1263   -0.3597    2.9219 H   0  0  0  0  0  0  0  0  0  0  0  0 
    2.7391   -0.4428    4.0073 H   0  0  0  0  0  0  0  0  0  0  0  0 
    1.3980   -1.6161    2.2571 H   0  0  0  0  0  0  0  0  0  0  0  0 
    2.8931   -2.4879    2.5968 H   0  0  0  0  0  0  0  0  0  0  0  0 
    2.8700    1.8242    3.0402 H   0  0  0  0  0  0  0  0  0  0  0  0 
    1.4111    1.0427    2.4245 H   0  0  0  0  0  0  0  0  0  0  0  0 
    2.6816    0.0900   -1.1944 H   0  0  0  0  0  0  0  0  0  0  0  0 
  1  5  1  0  0  0  0 
  1 11  1  0  0  0  0 
  2 13  1  0  0  0  0 
  3 14  1  0  0  0  0 
  3 15  1  0  0  0  0 
  3  2  1  0  0  0  0 
  4  2  1  0  0  0  0 
  4 16  1  0  0  0  0 
  5 18  1  6  0  0  0 
  5  7  1  0  0  0  0 
  5  8  1  0  0  0  0 
  7  3  1  0  0  0  0 
  8  6  2  6  0  0  0 
  8  4  1  0  0  0  0 
  9  1  1  0  0  0  0 
 10  1  1  0  0  0  0 
 12  2  1  0  0  0  0 
 17  4  1  0  0  0  0 
M  END 
>  <HBA> 
2 
 
>  <HBD> 
0 
 
>  <TPSA> 
61.58 
 
>  <cid> 
27883 
 
>  <dipole> 
3.68 
 
>  <excitation_energy_1> 
5.134 
 
>  <excitation_energy_2> 
5.354 
 
>  <excitation_energy_3> 
5.592 
 
>  <excitation_energy_4> 
5.64 
 
>  <homo_energy> 
-6.085 
 
>  <homo_lumo_gap> 
6.463 
 
>  <logP> 
2.084 
 
>  <lumo_energy> 
0.378 
 
>  <melting_point> 
24.95 
 
>  <molecular_refractivity> 
39.9 
 
>  <oscillator_strength_1> 
0.0255 
 
>  <oscillator_strength_2> 
0.001 
 
>  <oscillator_strength_3> 
0.0108 
 
>  <oscillator_strength_4> 
0.0066 
 
>  <open_babel_can_smiles> 
O=[S@]1CCCS[C@H]1C 
 
>  <mulliken_charges> 
18 
1   -0.453122 
2   -0.27332 
3   -0.42026 
4   -0.46899 
5   -0.44705 
6   -0.637717 
7   0.115069 
8   0.77836 
9   0.17141 
10   0.200198 
11   0.154194 
12   0.171848 
13   0.15853 
14   0.177215 
15   0.186514 
16   0.191592 
17   0.18643 
18   0.209097 
 
>  <lowdin_charges> 
18 
1   -0.454403 
2   -0.278216 
3   -0.377871 
4   -0.42703 
5   -0.378529 
6   -0.670178 
7   0.121771 
8   0.789597 
9   0.168582 
10   0.178494 
11   0.152048 
12   0.158325 
13   0.15703 
14   0.156414 
15   0.176233 
16   0.178191 
17   0.164597 
18   0.184945 
 
$$$$ 
 
