PCCDB-ID:  66282 
public computational chemistry database (PCCDB) project, http://pccdb.org 
 
 13 12  0  0  0  0  0  0  0  0999 V2000 
    1.5341    0.4300    1.0483 C   0  0  0  0  0  0  0  0  0  0  0  0 
    5.2510    0.7020    1.0843 C   0  0  0  0  0  0  0  0  0  0  0  0 
    2.2418   -0.0063    0.0038 C   0  0  0  0  0  0  0  0  0  0  0  0 
    3.1682    0.8469   -0.8073 C   0  0  0  0  0  0  0  0  0  0  0  0 
    4.9357    0.3194   -0.6734 S   0  0  0  0  0  0  0  0  0  0  0  0 
    0.8797   -0.2295    1.6116 H   0  0  0  0  0  0  0  0  0  0  0  0 
    1.5735    1.4685    1.3715 H   0  0  0  0  0  0  0  0  0  0  0  0 
    6.2588    0.3445    1.3107 H   0  0  0  0  0  0  0  0  0  0  0  0 
    4.5347    0.1884    1.7313 H   0  0  0  0  0  0  0  0  0  0  0  0 
    5.2077    1.7800    1.2689 H   0  0  0  0  0  0  0  0  0  0  0  0 
    2.1854   -1.0539   -0.2904 H   0  0  0  0  0  0  0  0  0  0  0  0 
    3.0852    1.9034   -0.5292 H   0  0  0  0  0  0  0  0  0  0  0  0 
    2.9485    0.7634   -1.8779 H   0  0  0  0  0  0  0  0  0  0  0  0 
  1  7  1  0  0  0  0 
  1  6  1  0  0  0  0 
  2 10  1  0  0  0  0 
  2  8  1  0  0  0  0 
  2  9  1  0  0  0  0 
  3  1  2  0  0  0  0 
  4  5  1  0  0  0  0 
  4 12  1  0  0  0  0 
  4  3  1  0  0  0  0 
  5  2  1  0  0  0  0 
 11  3  1  0  0  0  0 
 13  4  1  0  0  0  0 
M  END 
>  <HBA> 
1 
 
>  <HBD> 
0 
 
>  <TPSA> 
25.3 
 
>  <cid> 
66282 
 
>  <dipole> 
1.57 
 
>  <excitation_energy_1> 
4.87 
 
>  <excitation_energy_2> 
5.276 
 
>  <excitation_energy_3> 
5.561 
 
>  <excitation_energy_4> 
6.123 
 
>  <homo_energy> 
-5.973 
 
>  <homo_lumo_gap> 
6.125 
 
>  <logP> 
1.535 
 
>  <lumo_energy> 
0.152 
 
>  <melting_point> 
-36.86 
 
>  <molecular_refractivity> 
28.46 
 
>  <oscillator_strength_1> 
0.024 
 
>  <oscillator_strength_2> 
0.0071 
 
>  <oscillator_strength_3> 
0.0118 
 
>  <oscillator_strength_4> 
0.0283 
 
>  <open_babel_can_smiles> 
CSCC=C 
 
>  <mulliken_charges> 
13 
1   -0.336944 
2   -0.582693 
3   -0.034319 
4   -0.456458 
5   0.086132 
6   0.146049 
7   0.13856 
8   0.182197 
9   0.186155 
10   0.172974 
11   0.143521 
12   0.171792 
13   0.183035 
 
>  <lowdin_charges> 
13 
1   -0.340953 
2   -0.54764 
3   -0.148068 
4   -0.367497 
5   0.096783 
6   0.163315 
7   0.154257 
8   0.174922 
9   0.168584 
10   0.157558 
11   0.158238 
12   0.157901 
13   0.172601 
 
$$$$ 
 
