PCCDB-ID:  47866 
public computational chemistry database (PCCDB) project, http://pccdb.org 
 
 22 23  0  0  0  0  0  0  0  0999 V2000 
    0.0199   -0.6557    0.8364 C   0  0  0  0  0  0  0  0  0  0  0  0 
   -0.6119   -1.6624    1.7609 C   0  0  0  0  0  0  0  0  0  0  0  0 
   -1.4860   -0.8159    0.8585 C   0  0  0  0  0  0  0  0  0  0  0  0 
   -5.3879    0.0918   -0.6650 C   0  0  0  0  0  0  0  0  0  0  0  0 
   -4.9804   -1.6667   -2.3864 C   0  0  0  0  0  0  0  0  0  0  0  0 
   -3.2466   -1.1670   -0.6808 C   0  0  0  0  0  0  0  0  0  0  0  0 
   -6.0743    1.0003   -0.0838 N   0  0  0  0  0  0  0  0  0  0  0  0 
   -5.3035   -2.3777   -3.3987 N   0  0  0  0  0  0  0  0  0  0  0  0 
   -2.0813   -1.4637   -0.2586 N   0  0  0  0  0  0  0  0  0  0  0  0 
   -5.7516   -0.6687   -1.7765 N   0  0  0  0  0  0  0  0  0  0  0  0 
   -4.1269   -0.2135   -0.1753 N   0  0  0  0  0  0  0  0  0  0  0  0 
   -3.7535   -1.8507   -1.7822 N   0  0  0  0  0  0  0  0  0  0  0  0 
    0.5266   -1.0293   -0.0478 H   0  0  0  0  0  0  0  0  0  0  0  0 
    0.4442    0.2507    1.2597 H   0  0  0  0  0  0  0  0  0  0  0  0 
   -0.6278   -1.4566    2.8278 H   0  0  0  0  0  0  0  0  0  0  0  0 
   -0.5290   -2.7122    1.4981 H   0  0  0  0  0  0  0  0  0  0  0  0 
   -2.0294   -0.0103    1.3603 H   0  0  0  0  0  0  0  0  0  0  0  0 
   -6.9812    1.1385   -0.5295 H   0  0  0  0  0  0  0  0  0  0  0  0 
   -6.2322   -2.1420   -3.7484 H   0  0  0  0  0  0  0  0  0  0  0  0 
   -6.6637   -0.4927   -2.1714 H   0  0  0  0  0  0  0  0  0  0  0  0 
   -3.8570    0.3303    0.6308 H   0  0  0  0  0  0  0  0  0  0  0  0 
   -3.1512   -2.5528   -2.1894 H   0  0  0  0  0  0  0  0  0  0  0  0 
  1  3  1  0  0  0  0 
  1 14  1  0  0  0  0 
  1  2  1  0  0  0  0 
  2 15  1  0  0  0  0 
  3 17  1  0  0  0  0 
  3  2  1  0  0  0  0 
  4 11  1  0  0  0  0 
  4  7  2  0  0  0  0 
  5 12  1  0  0  0  0 
  5 10  1  0  0  0  0 
  6  9  2  0  0  0  0 
  6 11  1  0  0  0  0 
  8  5  2  0  0  0  0 
  9  3  1  0  0  0  0 
 10  4  1  0  0  0  0 
 11 21  1  0  0  0  0 
 12  6  1  0  0  0  0 
 13  1  1  0  0  0  0 
 16  2  1  0  0  0  0 
 18  7  1  0  0  0  0 
 19  8  1  0  0  0  0 
 20 10  1  0  0  0  0 
 22 12  1  0  0  0  0 
M  END 
>  <HBA> 
6 
 
>  <HBD> 
3 
 
>  <TPSA> 
102.74 
 
>  <cid> 
47866 
 
>  <dipole> 
1.99 
 
>  <excitation_energy_1> 
4.837 
 
>  <excitation_energy_2> 
5.319 
 
>  <excitation_energy_3> 
5.414 
 
>  <excitation_energy_4> 
5.699 
 
>  <homo_energy> 
-5.804 
 
>  <homo_lumo_gap> 
6.196 
 
>  <logP> 
0.846 
 
>  <lumo_energy> 
0.392 
 
>  <melting_point> 
205.95 
 
>  <molecular_refractivity> 
45.44 
 
>  <oscillator_strength_1> 
0.003 
 
>  <oscillator_strength_2> 
0.0268 
 
>  <oscillator_strength_3> 
0.0014 
 
>  <oscillator_strength_4> 
0.002 
 
>  <open_babel_can_smiles> 
N=c1[nH]c(=NC2CC2)[nH]c(=N)[nH]1 
 
>  <mulliken_charges> 
22 
1   -0.315049 
2   -0.315036 
3   0.023849 
4   0.691755 
5   0.692835 
6   0.753712 
7   -0.650324 
8   -0.648744 
9   -0.498551 
10   -0.707511 
11   -0.705941 
12   -0.686293 
13   0.165667 
14   0.150203 
15   0.150231 
16   0.165559 
17   0.1164 
18   0.279416 
19   0.276894 
20   0.33689 
21   0.361833 
22   0.362206 
 
>  <lowdin_charges> 
22 
1   -0.314463 
2   -0.311736 
3   -0.091867 
4   0.144884 
5   0.140702 
6   0.134693 
7   -0.458788 
8   -0.457024 
9   -0.235746 
10   -0.274967 
11   -0.251528 
12   -0.23425 
13   0.167896 
14   0.159123 
15   0.157188 
16   0.165988 
17   0.129463 
18   0.256451 
19   0.254397 
20   0.295719 
21   0.307491 
22   0.316374 
 
$$$$ 
 
