PCCDB-ID:  67600 
public computational chemistry database (PCCDB) project, http://pccdb.org 
 
 25 24  0  0  0  0  0  0  0  0999 V2000 
    2.5994   -0.0733   -2.3537 C   0  0  0  0  0  0  0  0  0  0  0  0 
    3.1253    1.1336   -1.5651 C   0  0  0  0  0  0  0  0  0  0  0  0 
    4.2200    0.8180   -0.5222 C   0  0  0  0  0  0  0  0  0  0  0  0 
    5.6747    0.8384   -1.0270 C   0  0  0  0  0  0  0  0  0  0  0  0 
    6.0485   -0.2507   -2.0443 C   0  0  0  0  0  0  0  0  0  0  0  0 
    7.5472   -0.2989   -2.3598 C   0  0  0  0  0  0  0  0  0  0  0  0 
    8.0363    0.8537   -3.2094 C   0  0  0  0  0  0  0  0  0  0  0  0 
    9.5699    0.8984   -3.4185 C   0  0  0  0  0  0  0  0  0  0  0  0 
    7.3273    1.6877   -3.7278 O   0  0  0  0  0  0  0  0  0  0  0  0 
    9.9484    1.9311   -4.1884 O   0  0  0  0  0  0  0  0  0  0  0  0 
   10.3317    0.0873   -2.9387 O   0  0  0  0  0  0  0  0  0  0  0  0 
    1.7946    0.2267   -3.0353 H   0  0  0  0  0  0  0  0  0  0  0  0 
    2.1924   -0.8350   -1.6769 H   0  0  0  0  0  0  0  0  0  0  0  0 
    3.3786   -0.5507   -2.9558 H   0  0  0  0  0  0  0  0  0  0  0  0 
    2.2739    1.5930   -1.0456 H   0  0  0  0  0  0  0  0  0  0  0  0 
    3.4984    1.8975   -2.2618 H   0  0  0  0  0  0  0  0  0  0  0  0 
    4.0069   -0.1551   -0.0543 H   0  0  0  0  0  0  0  0  0  0  0  0 
    4.1517    1.5584    0.2859 H   0  0  0  0  0  0  0  0  0  0  0  0 
    6.3368    0.7381   -0.1538 H   0  0  0  0  0  0  0  0  0  0  0  0 
    5.8861    1.8232   -1.4627 H   0  0  0  0  0  0  0  0  0  0  0  0 
    5.4999   -0.0976   -2.9796 H   0  0  0  0  0  0  0  0  0  0  0  0 
    5.7479   -1.2322   -1.6549 H   0  0  0  0  0  0  0  0  0  0  0  0 
    7.8103   -1.2198   -2.9023 H   0  0  0  0  0  0  0  0  0  0  0  0 
    8.1580   -0.3391   -1.4477 H   0  0  0  0  0  0  0  0  0  0  0  0 
   10.9202    1.8753   -4.2637 H   0  0  0  0  0  0  0  0  0  0  0  0 
  1 13  1  0  0  0  0 
  1  2  1  0  0  0  0 
  2 15  1  0  0  0  0 
  2  3  1  0  0  0  0 
  3 17  1  0  0  0  0 
  3 18  1  0  0  0  0 
  4  3  1  0  0  0  0 
  4 19  1  0  0  0  0 
  5 22  1  0  0  0  0 
  5  4  1  0  0  0  0 
  6  5  1  0  0  0  0 
  6 24  1  0  0  0  0 
  7  6  1  0  0  0  0 
  8  7  1  0  0  0  0 
  8 11  2  0  0  0  0 
  9  7  2  0  0  0  0 
 10  8  1  0  0  0  0 
 12  1  1  0  0  0  0 
 14  1  1  0  0  0  0 
 16  2  1  0  0  0  0 
 20  4  1  0  0  0  0 
 21  5  1  0  0  0  0 
 23  6  1  0  0  0  0 
 25 10  1  0  0  0  0 
M  END 
>  <HBA> 
3 
 
>  <HBD> 
1 
 
>  <TPSA> 
54.37 
 
>  <cid> 
67600 
 
>  <dipole> 
0.96 
 
>  <excitation_energy_1> 
3.251 
 
>  <excitation_energy_2> 
5.053 
 
>  <excitation_energy_3> 
5.348 
 
>  <excitation_energy_4> 
5.458 
 
>  <homo_energy> 
-7.031 
 
>  <homo_lumo_gap> 
4.898 
 
>  <logP> 
1.611 
 
>  <lumo_energy> 
-2.133 
 
>  <melting_point> 
70.66 
 
>  <molecular_refractivity> 
42.54 
 
>  <oscillator_strength_1> 
0.0 
 
>  <oscillator_strength_2> 
0.0001 
 
>  <oscillator_strength_3> 
0.0011 
 
>  <oscillator_strength_4> 
0.0071 
 
>  <open_babel_can_smiles> 
CCCCCCC(=O)C(=O)O 
 
>  <mulliken_charges> 
25 
1   -0.445834 
2   -0.250246 
3   -0.255864 
4   -0.263439 
5   -0.255173 
6   -0.359505 
7   0.402653 
8   0.526192 
9   -0.414226 
10   -0.538336 
11   -0.446515 
12   0.141843 
13   0.139542 
14   0.147142 
15   0.131602 
16   0.139812 
17   0.125715 
18   0.130677 
19   0.122696 
20   0.152024 
21   0.159151 
22   0.133931 
23   0.180099 
24   0.179624 
25   0.416435 
 
>  <lowdin_charges> 
25 
1   -0.450961 
2   -0.277839 
3   -0.277237 
4   -0.278759 
5   -0.275864 
6   -0.306634 
7   0.139712 
8   0.159984 
9   -0.184714 
10   -0.318288 
11   -0.246458 
12   0.149935 
13   0.145822 
14   0.148496 
15   0.143397 
16   0.144881 
17   0.136696 
18   0.144809 
19   0.137488 
20   0.148201 
21   0.154381 
22   0.14536 
23   0.178036 
24   0.174423 
25   0.365133 
 
$$$$ 
 
