PCCDB-ID:  69896 
public computational chemistry database (PCCDB) project, http://pccdb.org 
 
 28 28  0  0  0  0  0  0  0  0999 V2000 
    1.8414    1.6638   -1.1561 C   0  0  0  0  0  0  0  0  0  0  0  0 
   -1.0537    1.8049    5.9174 C   0  0  0  0  0  0  0  0  0  0  0  0 
    0.3299    5.2988    3.7998 C   0  0  0  0  0  0  0  0  0  0  0  0 
    1.4044    0.5334    2.7188 C   0  0  0  0  0  0  0  0  0  0  0  0 
    0.5578    0.9276    3.7574 C   0  0  0  0  0  0  0  0  0  0  0  0 
    3.1777    1.0080    0.9723 C   0  0  0  0  0  0  0  0  0  0  0  0 
    2.2422    2.7772    2.5485 C   0  0  0  0  0  0  0  0  0  0  0  0 
    2.3527    0.5662   -0.2414 C   0  0  0  0  0  0  0  0  0  0  0  0 
    2.2653    1.4478    2.1067 C   0  0  0  0  0  0  0  0  0  0  0  0 
    0.5526    2.2519    4.2064 C   0  0  0  0  0  0  0  0  0  0  0  0 
    1.4049    3.1893    3.5819 C   0  0  0  0  0  0  0  0  0  0  0  0 
    2.1018   -0.6082   -0.4344 O   0  0  0  0  0  0  0  0  0  0  0  0 
   -0.2178    2.7241    5.2315 O   0  0  0  0  0  0  0  0  0  0  0  0 
    1.4894    4.4908    4.0137 O   0  0  0  0  0  0  0  0  0  0  0  0 
    2.6840    2.1331   -1.6809 H   0  0  0  0  0  0  0  0  0  0  0  0 
    1.3475    2.4507   -0.5741 H   0  0  0  0  0  0  0  0  0  0  0  0 
    1.1475    1.2477   -1.8890 H   0  0  0  0  0  0  0  0  0  0  0  0 
   -1.5541    2.3817    6.6973 H   0  0  0  0  0  0  0  0  0  0  0  0 
   -0.4694    0.9990    6.3800 H   0  0  0  0  0  0  0  0  0  0  0  0 
   -1.8073    1.3665    5.2499 H   0  0  0  0  0  0  0  0  0  0  0  0 
   -0.5295    4.9270    4.3654 H   0  0  0  0  0  0  0  0  0  0  0  0 
    0.0764    5.3425    2.7318 H   0  0  0  0  0  0  0  0  0  0  0  0 
    0.5931    6.3002    4.1485 H   0  0  0  0  0  0  0  0  0  0  0  0 
    1.3920   -0.4999    2.3829 H   0  0  0  0  0  0  0  0  0  0  0  0 
   -0.0892    0.1907    4.2196 H   0  0  0  0  0  0  0  0  0  0  0  0 
    3.8463    1.8317    0.6964 H   0  0  0  0  0  0  0  0  0  0  0  0 
    3.7892    0.1528    1.2781 H   0  0  0  0  0  0  0  0  0  0  0  0 
    2.8952    3.5250    2.1063 H   0  0  0  0  0  0  0  0  0  0  0  0 
  1 16  1  0  0  0  0 
  1  8  1  0  0  0  0 
  2 19  1  0  0  0  0 
  2 18  1  0  0  0  0 
  3 14  1  0  0  0  0 
  3 23  1  0  0  0  0 
  3 21  1  0  0  0  0 
  4  5  2  0  0  0  0 
  5 10  1  0  0  0  0 
  5 25  1  0  0  0  0 
  6 27  1  0  0  0  0 
  6  9  1  0  0  0  0 
  7 11  1  0  0  0  0 
  8  6  1  0  0  0  0 
  9  7  2  0  0  0  0 
  9  4  1  0  0  0  0 
 10 13  1  0  0  0  0 
 11 14  1  0  0  0  0 
 11 10  2  0  0  0  0 
 12  8  2  0  0  0  0 
 13  2  1  0  0  0  0 
 15  1  1  0  0  0  0 
 17  1  1  0  0  0  0 
 20  2  1  0  0  0  0 
 22  3  1  0  0  0  0 
 24  4  1  0  0  0  0 
 26  6  1  0  0  0  0 
 28  7  1  0  0  0  0 
M  END 
>  <HBA> 
3 
 
>  <HBD> 
0 
 
>  <TPSA> 
35.53 
 
>  <cid> 
69896 
 
>  <dipole> 
2.48 
 
>  <excitation_energy_1> 
4.165 
 
>  <excitation_energy_2> 
4.672 
 
>  <excitation_energy_3> 
4.942 
 
>  <excitation_energy_4> 
5.314 
 
>  <homo_energy> 
-5.747 
 
>  <homo_lumo_gap> 
5.282 
 
>  <logP> 
1.835 
 
>  <lumo_energy> 
-0.465 
 
>  <melting_point> 
39.43 
 
>  <molecular_refractivity> 
54.21 
 
>  <oscillator_strength_1> 
0.0284 
 
>  <oscillator_strength_2> 
0.0356 
 
>  <oscillator_strength_3> 
0.032 
 
>  <oscillator_strength_4> 
0.0201 
 
>  <open_babel_can_smiles> 
COc1cc(ccc1OC)CC(=O)C 
 
>  <mulliken_charges> 
28 
1   -0.529967 
2   -0.216892 
3   -0.210754 
4   -0.183016 
5   -0.204311 
6   -0.417717 
7   -0.24184 
8   0.459025 
9   0.147182 
10   0.347798 
11   0.317486 
12   -0.439486 
13   -0.508187 
14   -0.520833 
15   0.168362 
16   0.174457 
17   0.178302 
18   0.171359 
19   0.156587 
20   0.153307 
21   0.164139 
22   0.13613 
23   0.158791 
24   0.148049 
25   0.137214 
26   0.149746 
27   0.174482 
28   0.130585 
 
>  <lowdin_charges> 
28 
1   -0.477982 
2   -0.281166 
3   -0.274214 
4   -0.16183 
5   -0.206312 
6   -0.303227 
7   -0.186414 
8   0.168397 
9   -0.017627 
10   0.0769 
11   0.07179 
12   -0.238896 
13   -0.194185 
14   -0.223442 
15   0.171285 
16   0.173419 
17   0.173035 
18   0.164908 
19   0.149159 
20   0.146863 
21   0.151122 
22   0.135458 
23   0.155377 
24   0.166414 
25   0.165956 
26   0.158453 
27   0.171848 
28   0.164909 
 
$$$$ 
 
