PCCDB-ID:  25800 
public computational chemistry database (PCCDB) project, http://pccdb.org 
 
 24 24  0  0  1  0  0  0  0  0999 V2000 
    2.7565    1.4665   -5.3293 C   0  0  0  0  0  0  0  0  0  0  0  0 
    6.9583    6.2351   -1.2524 C   0  0  0  0  0  0  0  0  0  0  0  0 
    6.4017    6.0144   -2.5137 C   0  0  0  0  0  0  0  0  0  0  0  0 
    7.1000    5.1730   -0.3565 C   0  0  0  0  0  0  0  0  0  0  0  0 
    5.9799    4.7365   -2.8822 C   0  0  0  0  0  0  0  0  0  0  0  0 
    6.6913    3.8918   -0.7231 C   0  0  0  0  0  0  0  0  0  0  0  0 
    2.2842    2.1123   -2.2682 C   0  0  0  0  0  0  0  0  0  0  0  0 
    6.1207    3.6652   -1.9870 C   0  0  0  0  0  0  0  0  0  0  0  0 
    3.4562    2.7404   -2.9036 C   0  0  1  0  0  0  0  0  0  0  0  0 
    5.7077    2.2777   -2.3660 C   0  0  0  0  0  0  0  0  0  0  0  0 
    1.3534    1.6245   -1.7746 N   0  0  0  0  0  0  0  0  0  0  0  0 
    4.5844    1.8514   -2.7909 N   0  0  0  0  0  0  0  0  0  0  0  0 
    6.6760    1.3344   -2.2059 O   0  0  0  0  0  0  0  0  0  0  0  0 
    3.0568    3.1485   -4.6758 S   0  0  0  0  0  0  0  0  0  0  0  0 
    2.5933    1.5795   -6.4040 H   0  0  0  0  0  0  0  0  0  0  0  0 
    1.8662    1.0289   -4.8708 H   0  0  0  0  0  0  0  0  0  0  0  0 
    3.6255    0.8309   -5.1512 H   0  0  0  0  0  0  0  0  0  0  0  0 
    7.2809    7.2327   -0.9677 H   0  0  0  0  0  0  0  0  0  0  0  0 
    6.2967    6.8372   -3.2150 H   0  0  0  0  0  0  0  0  0  0  0  0 
    7.5278    5.3418    0.6276 H   0  0  0  0  0  0  0  0  0  0  0  0 
    5.5579    4.5606   -3.8677 H   0  0  0  0  0  0  0  0  0  0  0  0 
    6.7898    3.0672   -0.0215 H   0  0  0  0  0  0  0  0  0  0  0  0 
    3.5968    3.7292   -2.4442 H   0  0  0  0  0  0  0  0  0  0  0  0 
    7.5182    1.7825   -2.0263 H   0  0  0  0  0  0  0  0  0  0  0  0 
  1 17  1  0  0  0  0 
  1 16  1  0  0  0  0 
  1 14  1  0  0  0  0 
  2 18  1  0  0  0  0 
  2  4  2  0  0  0  0 
  3  2  1  0  0  0  0 
  4 20  1  0  0  0  0 
  5  3  2  0  0  0  0 
  5  8  1  0  0  0  0 
  6  4  1  0  0  0  0 
  6 22  1  0  0  0  0 
  7 11  3  0  0  0  0 
  8  6  2  0  0  0  0 
  9 12  1  0  0  0  0 
  9 23  1  1  0  0  0 
  9  7  1  0  0  0  0 
 10 13  1  0  0  0  0 
 10  8  1  0  0  0  0 
 12 10  2  0  0  0  0 
 13 24  1  0  0  0  0 
 14  9  1  0  0  0  0 
 15  1  1  0  0  0  0 
 19  3  1  0  0  0  0 
 21  5  1  0  0  0  0 
M  END 
>  <HBA> 
4 
 
>  <HBD> 
1 
 
>  <TPSA> 
78.19 
 
>  <cid> 
25800 
 
>  <dipole> 
6.7 
 
>  <excitation_energy_1> 
4.099 
 
>  <excitation_energy_2> 
4.733 
 
>  <excitation_energy_3> 
4.999 
 
>  <excitation_energy_4> 
5.033 
 
>  <homo_energy> 
-6.4 
 
>  <homo_lumo_gap> 
4.985 
 
>  <logP> 
2.02 
 
>  <lumo_energy> 
-1.415 
 
>  <melting_point> 
106.93 
 
>  <molecular_refractivity> 
56.39 
 
>  <oscillator_strength_1> 
0.0099 
 
>  <oscillator_strength_2> 
0.0009 
 
>  <oscillator_strength_3> 
0.0209 
 
>  <oscillator_strength_4> 
0.0073 
 
>  <open_babel_can_smiles> 
CS[C@H](/N=C(\c1ccccc1)/O)C#N 
 
>  <mulliken_charges> 
24 
1   -0.596659 
2   -0.118725 
3   -0.134013 
4   -0.128599 
5   -0.165405 
6   -0.175102 
7   0.415875 
8   0.01565 
9   -0.241051 
10   0.439222 
11   -0.477881 
12   -0.389799 
13   -0.564515 
14   0.12535 
15   0.183496 
16   0.203957 
17   0.210778 
18   0.146821 
19   0.149934 
20   0.147868 
21   0.179745 
22   0.156356 
23   0.204061 
24   0.412636 
 
>  <lowdin_charges> 
24 
1   -0.543734 
2   -0.140301 
3   -0.14793 
4   -0.146666 
5   -0.152407 
6   -0.161653 
7   -0.015544 
8   -0.055491 
9   -0.157803 
10   0.144786 
11   -0.119534 
12   -0.196197 
13   -0.344667 
14   0.116694 
15   0.176219 
16   0.176755 
17   0.1805 
18   0.165663 
19   0.168513 
20   0.166017 
21   0.178752 
22   0.169387 
23   0.177951 
24   0.360691 
 
$$$$ 
 
