PCCDB-ID:  69117 
public computational chemistry database (PCCDB) project, http://pccdb.org 
 
 18 18  0  0  0  0  0  0  0  0999 V2000 
   -1.3022   -0.7110    0.0483 C   0  0  0  0  0  0  0  0  0  0  0  0 
   -0.1259   -1.4410    0.1403 C   0  0  0  0  0  0  0  0  0  0  0  0 
   -1.2315    0.6764   -0.1017 C   0  0  0  0  0  0  0  0  0  0  0  0 
    2.3532   -1.5644    0.1806 C   0  0  0  0  0  0  0  0  0  0  0  0 
    1.1214   -0.7965    0.0844 C   0  0  0  0  0  0  0  0  0  0  0  0 
   -0.0131    1.3624   -0.1626 C   0  0  0  0  0  0  0  0  0  0  0  0 
    1.1770    0.6147   -0.0680 C   0  0  0  0  0  0  0  0  0  0  0  0 
   -0.0848    2.8621   -0.3275 C   0  0  0  0  0  0  0  0  0  0  0  0 
    3.4845   -1.0712    0.1398 O   0  0  0  0  0  0  0  0  0  0  0  0 
    2.3702    1.2426   -0.1227 O   0  0  0  0  0  0  0  0  0  0  0  0 
   -1.1488    3.4361   -0.4038 O   0  0  0  0  0  0  0  0  0  0  0  0 
    1.0716    3.5451   -0.3876 O   0  0  0  0  0  0  0  0  0  0  0  0 
   -2.2661   -1.2069    0.0916 H   0  0  0  0  0  0  0  0  0  0  0  0 
   -0.1513   -2.5221    0.2573 H   0  0  0  0  0  0  0  0  0  0  0  0 
   -2.1325    1.2765   -0.1771 H   0  0  0  0  0  0  0  0  0  0  0  0 
    2.2416   -2.6583    0.2972 H   0  0  0  0  0  0  0  0  0  0  0  0 
    3.0867    0.5489   -0.0399 H   0  0  0  0  0  0  0  0  0  0  0  0 
    1.8357    2.9383   -0.3121 H   0  0  0  0  0  0  0  0  0  0  0  0 
  1 13  1  0  0  0  0 
  1  2  2  0  0  0  0 
  2 14  1  0  0  0  0 
  3  1  1  0  0  0  0 
  4 16  1  0  0  0  0 
  5  2  1  0  0  0  0 
  5  4  1  0  0  0  0 
  6  3  2  0  0  0  0 
  6  7  1  0  0  0  0 
  7  5  2  0  0  0  0 
  8  6  1  0  0  0  0 
  9  4  2  0  0  0  0 
 10  7  1  0  0  0  0 
 10 17  1  0  0  0  0 
 11  8  2  0  0  0  0 
 12  8  1  0  0  0  0 
 12 18  1  0  0  0  0 
 15  3  1  0  0  0  0 
M  END 
>  <HBA> 
4 
 
>  <HBD> 
2 
 
>  <TPSA> 
74.6 
 
>  <cid> 
69117 
 
>  <dipole> 
5.59 
 
>  <excitation_energy_1> 
3.939 
 
>  <excitation_energy_2> 
3.973 
 
>  <excitation_energy_3> 
4.218 
 
>  <excitation_energy_4> 
4.822 
 
>  <homo_energy> 
-7.143 
 
>  <homo_lumo_gap> 
4.563 
 
>  <logP> 
0.903 
 
>  <lumo_energy> 
-2.58 
 
>  <melting_point> 
170.39 
 
>  <molecular_refractivity> 
40.81 
 
>  <oscillator_strength_1> 
0.0743 
 
>  <oscillator_strength_2> 
0.0002 
 
>  <oscillator_strength_3> 
0.0001 
 
>  <oscillator_strength_4> 
0.0 
 
>  <open_babel_can_smiles> 
O=Cc1cccc(c1O)C(=O)O 
 
>  <mulliken_charges> 
18 
1   -0.133051 
2   -0.183958 
3   -0.163463 
4   0.210387 
5   0.065428 
6   0.017915 
7   0.27251 
8   0.584438 
9   -0.46593 
10   -0.694373 
11   -0.461024 
12   -0.594456 
13   0.152762 
14   0.154728 
15   0.189096 
16   0.143291 
17   0.459443 
18   0.446257 
 
>  <lowdin_charges> 
18 
1   -0.173553 
2   -0.109963 
3   -0.08814 
4   0.061865 
5   -0.101482 
6   -0.08908 
7   0.135167 
8   0.197108 
9   -0.262947 
10   -0.37363 
11   -0.254968 
12   -0.353443 
13   0.170577 
14   0.167288 
15   0.191482 
16   0.140881 
17   0.378638 
18   0.364199 
 
$$$$ 
 
