PCCDB-ID:  66888 
public computational chemistry database (PCCDB) project, http://pccdb.org 
 
 23 23  0  0  0  0  0  0  0  0999 V2000 
    0.9898   -0.0177    0.2014 C   0  0  0  0  0  0  0  0  0  0  0  0 
    2.5846    2.4065   -0.3981 C   0  0  0  0  0  0  0  0  0  0  0  0 
    3.1335   -1.3400    0.0346 C   0  0  0  0  0  0  0  0  0  0  0  0 
    4.5083   -1.4485   -0.1799 C   0  0  0  0  0  0  0  0  0  0  0  0 
    4.6183    0.9248   -0.5233 C   0  0  0  0  0  0  0  0  0  0  0  0 
    6.7723   -0.4111   -0.6499 C   0  0  0  0  0  0  0  0  0  0  0  0 
    2.4803   -0.1060   -0.0280 C   0  0  0  0  0  0  0  0  0  0  0  0 
    3.2421    1.0482   -0.3159 C   0  0  0  0  0  0  0  0  0  0  0  0 
    5.2713   -0.3127   -0.4558 C   0  0  0  0  0  0  0  0  0  0  0  0 
    7.2413    0.4794   -1.7194 N   0  0  0  0  0  0  0  0  0  0  0  0 
    0.5655   -1.0029    0.4189 H   0  0  0  0  0  0  0  0  0  0  0  0 
    0.4648    0.3842   -0.6754 H   0  0  0  0  0  0  0  0  0  0  0  0 
    0.7450    0.6435    1.0431 H   0  0  0  0  0  0  0  0  0  0  0  0 
    3.3158    3.1830   -0.6420 H   0  0  0  0  0  0  0  0  0  0  0  0 
    2.1060    2.6852    0.5502 H   0  0  0  0  0  0  0  0  0  0  0  0 
    1.7994    2.4339   -1.1652 H   0  0  0  0  0  0  0  0  0  0  0  0 
    2.5538   -2.2356    0.2480 H   0  0  0  0  0  0  0  0  0  0  0  0 
    4.9869   -2.4246   -0.1314 H   0  0  0  0  0  0  0  0  0  0  0  0 
    5.2079    1.8070   -0.7575 H   0  0  0  0  0  0  0  0  0  0  0  0 
    7.0382   -1.4734   -0.7959 H   0  0  0  0  0  0  0  0  0  0  0  0 
    7.2813   -0.0950    0.2721 H   0  0  0  0  0  0  0  0  0  0  0  0 
    6.8608    0.1678   -2.6121 H   0  0  0  0  0  0  0  0  0  0  0  0 
    8.2551    0.4170   -1.7977 H   0  0  0  0  0  0  0  0  0  0  0  0 
  1 11  1  0  0  0  0 
  1 13  1  0  0  0  0 
  2  8  1  0  0  0  0 
  2 15  1  0  0  0  0 
  3 17  1  0  0  0  0 
  4 18  1  0  0  0  0 
  4  3  2  0  0  0  0 
  5  9  2  0  0  0  0 
  5  8  1  0  0  0  0 
  6  9  1  0  0  0  0 
  6 21  1  0  0  0  0 
  7  3  1  0  0  0  0 
  7  1  1  0  0  0  0 
  8  7  2  0  0  0  0 
  9  4  1  0  0  0  0 
 10  6  1  0  0  0  0 
 12  1  1  0  0  0  0 
 14  2  1  0  0  0  0 
 16  2  1  0  0  0  0 
 19  5  1  0  0  0  0 
 20  6  1  0  0  0  0 
 22 10  1  0  0  0  0 
 23 10  1  0  0  0  0 
M  END 
>  <HBA> 
1 
 
>  <HBD> 
1 
 
>  <TPSA> 
26.02 
 
>  <cid> 
66888 
 
>  <dipole> 
0.95 
 
>  <excitation_energy_1> 
5.117 
 
>  <excitation_energy_2> 
5.389 
 
>  <excitation_energy_3> 
5.692 
 
>  <excitation_energy_4> 
5.71 
 
>  <homo_energy> 
-5.989 
 
>  <homo_lumo_gap> 
6.237 
 
>  <logP> 
2.462 
 
>  <lumo_energy> 
0.248 
 
>  <melting_point> 
71.08 
 
>  <molecular_refractivity> 
44.05 
 
>  <oscillator_strength_1> 
0.0016 
 
>  <oscillator_strength_2> 
0.0536 
 
>  <oscillator_strength_3> 
0.0345 
 
>  <oscillator_strength_4> 
0.0049 
 
>  <open_babel_can_smiles> 
NCc1ccc(c(c1)C)C 
 
>  <mulliken_charges> 
23 
1   -0.531877 
2   -0.531978 
3   -0.18577 
4   -0.190371 
5   -0.231482 
6   -0.209413 
7   0.133013 
8   0.133967 
9   0.152568 
10   -0.713731 
11   0.1522 
12   0.157118 
13   0.157284 
14   0.156876 
15   0.156304 
16   0.155578 
17   0.116058 
18   0.114315 
19   0.140855 
20   0.11937 
21   0.154767 
22   0.297441 
23   0.296908 
 
>  <lowdin_charges> 
23 
1   -0.442751 
2   -0.442789 
3   -0.169764 
4   -0.174924 
5   -0.170127 
6   -0.199724 
7   -0.011038 
8   -0.008398 
9   -0.018489 
10   -0.552726 
11   0.155348 
12   0.157569 
13   0.157705 
14   0.15869 
15   0.156699 
16   0.156791 
17   0.151878 
18   0.150529 
19   0.165092 
20   0.121312 
21   0.151133 
22   0.254824 
23   0.253161 
 
$$$$ 
 
