PCCDB-ID:  7816 
public computational chemistry database (PCCDB) project, http://pccdb.org 
 
 22 22  0  0  1  0  0  0  0  0999 V2000 
    0.9134    0.0483   -0.1187 C   0  0  0  0  0  0  0  0  0  0  0  0 
    2.6705    0.0367    4.3890 C   0  0  0  0  0  0  0  0  0  0  0  0 
    2.9589   -1.1593    0.8209 C   0  0  0  0  0  0  0  0  0  0  0  0 
    2.5788    1.3188    2.1951 C   0  0  0  0  0  0  0  0  0  0  0  0 
    2.4338    0.0845    0.0748 C   0  0  2  0  0  0  0  0  0  0  0  0 
    3.0873    0.0600    2.9202 C   0  0  2  0  0  0  0  0  0  0  0  0 
    2.8476    1.3320    0.7515 N   0  0  0  0  0  0  0  0  0  0  0  0 
    2.5358   -1.1066    2.2217 N   0  0  0  0  0  0  0  0  0  0  0  0 
    0.6314   -0.7960   -0.7588 H   0  0  0  0  0  0  0  0  0  0  0  0 
    0.5735    0.9743   -0.5924 H   0  0  0  0  0  0  0  0  0  0  0  0 
    0.3927   -0.0725    0.8352 H   0  0  0  0  0  0  0  0  0  0  0  0 
    3.0666    0.9083    4.9226 H   0  0  0  0  0  0  0  0  0  0  0  0 
    3.0475   -0.8615    4.8944 H   0  0  0  0  0  0  0  0  0  0  0  0 
    1.5783    0.0397    4.4760 H   0  0  0  0  0  0  0  0  0  0  0  0 
    4.0633   -1.1877    0.7163 H   0  0  0  0  0  0  0  0  0  0  0  0 
    2.5641   -2.0768    0.3671 H   0  0  0  0  0  0  0  0  0  0  0  0 
    3.0342    2.2143    2.6350 H   0  0  0  0  0  0  0  0  0  0  0  0 
    1.4953    1.3960    2.3494 H   0  0  0  0  0  0  0  0  0  0  0  0 
    2.9023    0.1056   -0.9179 H   0  0  0  0  0  0  0  0  0  0  0  0 
    4.1978    0.0717    2.8646 H   0  0  0  0  0  0  0  0  0  0  0  0 
    3.8521    1.4476    0.6160 H   0  0  0  0  0  0  0  0  0  0  0  0 
    2.8213   -1.9585    2.7014 H   0  0  0  0  0  0  0  0  0  0  0  0 
  1  5  1  0  0  0  0 
  1 11  1  0  0  0  0 
  2 14  1  0  0  0  0 
  2 13  1  0  0  0  0 
  2 12  1  0  0  0  0 
  3  8  1  0  0  0  0 
  4 18  1  0  0  0  0 
  4 17  1  0  0  0  0 
  4  6  1  0  0  0  0 
  5 19  1  6  0  0  0 
  5  7  1  0  0  0  0 
  5  3  1  0  0  0  0 
  6 20  1  6  0  0  0 
  6  2  1  0  0  0  0 
  7  4  1  0  0  0  0 
  8 22  1  0  0  0  0 
  8  6  1  0  0  0  0 
  9  1  1  0  0  0  0 
 10  1  1  0  0  0  0 
 15  3  1  0  0  0  0 
 16  3  1  0  0  0  0 
 21  7  1  0  0  0  0 
M  END 
>  <HBA> 
2 
 
>  <HBD> 
2 
 
>  <TPSA> 
24.06 
 
>  <cid> 
7816 
 
>  <dipole> 
1.88 
 
>  <excitation_energy_1> 
4.935 
 
>  <excitation_energy_2> 
5.384 
 
>  <excitation_energy_3> 
5.61 
 
>  <excitation_energy_4> 
5.706 
 
>  <homo_energy> 
-5.559 
 
>  <homo_lumo_gap> 
7.557 
 
>  <logP> 
0.614 
 
>  <lumo_energy> 
1.997 
 
>  <melting_point> 
50.37 
 
>  <molecular_refractivity> 
42.28 
 
>  <oscillator_strength_1> 
0.0204 
 
>  <oscillator_strength_2> 
0.0068 
 
>  <oscillator_strength_3> 
0.0113 
 
>  <oscillator_strength_4> 
0.0303 
 
>  <open_babel_can_smiles> 
C[C@H]1NC[C@H](NC1)C 
 
>  <mulliken_charges> 
22 
1   -0.438727 
2   -0.455209 
3   -0.128253 
4   -0.138168 
5   0.026739 
6   0.051796 
7   -0.541725 
8   -0.554478 
9   0.132512 
10   0.151293 
11   0.161455 
12   0.143019 
13   0.136225 
14   0.155863 
15   0.099051 
16   0.131773 
17   0.131076 
18   0.147799 
19   0.121604 
20   0.088452 
21   0.285434 
22   0.292469 
 
>  <lowdin_charges> 
22 
1   -0.452251 
2   -0.446413 
3   -0.216762 
4   -0.214219 
5   -0.067938 
6   -0.073178 
7   -0.358403 
8   -0.367254 
9   0.147528 
10   0.155661 
11   0.15642 
12   0.152597 
13   0.147366 
14   0.153396 
15   0.108689 
16   0.1444 
17   0.144874 
18   0.14455 
19   0.138768 
20   0.103088 
21   0.245615 
22   0.253467 
 
$$$$ 
 
