PCCDB-ID:  8487 
public computational chemistry database (PCCDB) project, http://pccdb.org 
 
 18 18  0  0  0  0  0  0  0  0999 V2000 
    1.1354   -0.3713   -0.5722 C   0  0  0  0  0  0  0  0  0  0  0  0 
    4.9644   -1.2824    2.5444 C   0  0  0  0  0  0  0  0  0  0  0  0 
    4.2164   -0.3977    1.7759 C   0  0  0  0  0  0  0  0  0  0  0  0 
    4.6328   -2.6391    2.5909 C   0  0  0  0  0  0  0  0  0  0  0  0 
    2.7822   -2.2275    1.0843 C   0  0  0  0  0  0  0  0  0  0  0  0 
    2.3342    0.1184    0.2237 C   0  0  0  0  0  0  0  0  0  0  0  0 
    3.1174   -0.8697    1.0399 C   0  0  0  0  0  0  0  0  0  0  0  0 
    3.5390   -3.1113    1.8591 C   0  0  0  0  0  0  0  0  0  0  0  0 
    2.6553    1.2966    0.2000 O   0  0  0  0  0  0  0  0  0  0  0  0 
    3.1580   -4.4250    1.8585 O   0  0  0  0  0  0  0  0  0  0  0  0 
    0.3878   -0.8337    0.0831 H   0  0  0  0  0  0  0  0  0  0  0  0 
    1.4341   -1.1261   -1.3095 H   0  0  0  0  0  0  0  0  0  0  0  0 
    0.6879    0.4798   -1.0881 H   0  0  0  0  0  0  0  0  0  0  0  0 
    5.8152   -0.9227    3.1164 H   0  0  0  0  0  0  0  0  0  0  0  0 
    4.4591    0.6577    1.7267 H   0  0  0  0  0  0  0  0  0  0  0  0 
    5.2219   -3.3282    3.1937 H   0  0  0  0  0  0  0  0  0  0  0  0 
    1.9413   -2.6276    0.5286 H   0  0  0  0  0  0  0  0  0  0  0  0 
    3.7576   -4.9293    2.4300 H   0  0  0  0  0  0  0  0  0  0  0  0 
  1 11  1  0  0  0  0 
  1  6  1  0  0  0  0 
  2  4  1  0  0  0  0 
  2 14  1  0  0  0  0 
  3  2  2  0  0  0  0 
  4 16  1  0  0  0  0 
  5  8  1  0  0  0  0 
  6  7  1  0  0  0  0 
  7  5  2  0  0  0  0 
  7  3  1  0  0  0  0 
  8  4  2  0  0  0  0 
  9  6  2  0  0  0  0 
 10  8  1  0  0  0  0 
 10 18  1  0  0  0  0 
 12  1  1  0  0  0  0 
 13  1  1  0  0  0  0 
 15  3  1  0  0  0  0 
 17  5  1  0  0  0  0 
M  END 
>  <HBA> 
2 
 
>  <HBD> 
1 
 
>  <TPSA> 
37.3 
 
>  <cid> 
8487 
 
>  <dipole> 
3.57 
 
>  <excitation_energy_1> 
3.723 
 
>  <excitation_energy_2> 
4.175 
 
>  <excitation_energy_3> 
5.137 
 
>  <excitation_energy_4> 
5.354 
 
>  <homo_energy> 
-6.278 
 
>  <homo_lumo_gap> 
4.819 
 
>  <logP> 
1.595 
 
>  <lumo_energy> 
-1.459 
 
>  <melting_point> 
79.19 
 
>  <molecular_refractivity> 
38.66 
 
>  <oscillator_strength_1> 
0.0001 
 
>  <oscillator_strength_2> 
0.0551 
 
>  <oscillator_strength_3> 
0.1323 
 
>  <oscillator_strength_4> 
0.0 
 
>  <open_babel_can_smiles> 
Oc1cccc(c1)C(=O)C 
 
>  <mulliken_charges> 
18 
1   -0.542467 
2   -0.134486 
3   -0.164885 
4   -0.18654 
5   -0.222543 
6   0.407512 
7   0.074421 
8   0.35555 
9   -0.450769 
10   -0.642036 
11   0.172375 
12   0.172725 
13   0.180968 
14   0.139351 
15   0.161424 
16   0.125102 
17   0.144863 
18   0.409433 
 
>  <lowdin_charges> 
18 
1   -0.478581 
2   -0.143237 
3   -0.15048 
4   -0.201469 
5   -0.181051 
6   0.162836 
7   -0.039646 
8   0.103135 
9   -0.239474 
10   -0.380521 
11   0.171804 
12   0.171832 
13   0.175717 
14   0.163217 
15   0.175464 
16   0.157787 
17   0.171909 
18   0.360757 
 
$$$$ 
 
