PCCDB-ID:  23444 
public computational chemistry database (PCCDB) project, http://pccdb.org 
 
 28 28  0  0  0  0  0  0  0  0999 V2000 
    0.8592    1.9330   -0.2732 C   0  0  0  0  0  0  0  0  0  0  0  0 
    1.7125    0.6625   -0.1483 C   0  0  0  0  0  0  0  0  0  0  0  0 
   -0.3143    1.9170    0.7162 C   0  0  0  0  0  0  0  0  0  0  0  0 
    0.8488   -0.6026   -0.2913 C   0  0  0  0  0  0  0  0  0  0  0  0 
   -1.1740    0.6514    0.5659 C   0  0  0  0  0  0  0  0  0  0  0  0 
   -1.2431   -1.8903    0.2333 C   0  0  0  0  0  0  0  0  0  0  0  0 
    0.1825   -0.8880    2.0957 C   0  0  0  0  0  0  0  0  0  0  0  0 
   -2.7515   -1.8822    0.5268 C   0  0  0  0  0  0  0  0  0  0  0  0 
   -0.3694   -0.6707    0.6752 C   0  0  0  0  0  0  0  0  0  0  0  0 
   -0.8939   -0.9273    3.0481 O   0  0  0  0  0  0  0  0  0  0  0  0 
   -3.5684   -2.0414   -0.3520 O   0  0  0  0  0  0  0  0  0  0  0  0 
   -3.1356   -1.7376    1.8079 O   0  0  0  0  0  0  0  0  0  0  0  0 
    0.4644    2.0004   -1.2976 H   0  0  0  0  0  0  0  0  0  0  0  0 
    1.4787    2.8252   -0.1179 H   0  0  0  0  0  0  0  0  0  0  0  0 
    2.2401    0.6661    0.8156 H   0  0  0  0  0  0  0  0  0  0  0  0 
    2.4936    0.6502   -0.9188 H   0  0  0  0  0  0  0  0  0  0  0  0 
   -0.9476    2.7999    0.5651 H   0  0  0  0  0  0  0  0  0  0  0  0 
    0.0684    1.9925    1.7439 H   0  0  0  0  0  0  0  0  0  0  0  0 
    1.4660   -1.5049   -0.1752 H   0  0  0  0  0  0  0  0  0  0  0  0 
    0.4574   -0.6328   -1.3169 H   0  0  0  0  0  0  0  0  0  0  0  0 
   -1.6588    0.6657   -0.4204 H   0  0  0  0  0  0  0  0  0  0  0  0 
   -1.9817    0.6564    1.3048 H   0  0  0  0  0  0  0  0  0  0  0  0 
   -1.1824   -1.9948   -0.8524 H   0  0  0  0  0  0  0  0  0  0  0  0 
   -0.8220   -2.8120    0.6615 H   0  0  0  0  0  0  0  0  0  0  0  0 
    0.8705   -0.0829    2.3766 H   0  0  0  0  0  0  0  0  0  0  0  0 
    0.7418   -1.8350    2.1215 H   0  0  0  0  0  0  0  0  0  0  0  0 
   -0.5473   -1.2020    3.9101 H   0  0  0  0  0  0  0  0  0  0  0  0 
   -2.3526   -1.5541    2.3781 H   0  0  0  0  0  0  0  0  0  0  0  0 
  1  2  1  0  0  0  0 
  1 14  1  0  0  0  0 
  1  3  1  0  0  0  0 
  2 15  1  0  0  0  0 
  3 18  1  0  0  0  0 
  4 19  1  0  0  0  0 
  4  2  1  0  0  0  0 
  4  9  1  0  0  0  0 
  5  9  1  0  0  0  0 
  5  3  1  0  0  0  0 
  5 22  1  0  0  0  0 
  6  8  1  0  0  0  0 
  6 24  1  0  0  0  0 
  6  9  1  0  0  0  0 
  7 26  1  0  0  0  0 
  7 25  1  0  0  0  0 
  7 10  1  0  0  0  0 
  8 12  1  0  0  0  0 
  9  7  1  0  0  0  0 
 10 27  1  0  0  0  0 
 11  8  2  0  0  0  0 
 12 28  1  0  0  0  0 
 13  1  1  0  0  0  0 
 16  2  1  0  0  0  0 
 17  3  1  0  0  0  0 
 20  4  1  0  0  0  0 
 21  5  1  0  0  0  0 
 23  6  1  0  0  0  0 
M  END 
>  <HBA> 
3 
 
>  <HBD> 
2 
 
>  <TPSA> 
57.53 
 
>  <cid> 
23444 
 
>  <dipole> 
6.75 
 
>  <excitation_energy_1> 
5.508 
 
>  <excitation_energy_2> 
5.83 
 
>  <excitation_energy_3> 
6.511 
 
>  <excitation_energy_4> 
6.712 
 
>  <homo_energy> 
-6.621 
 
>  <homo_lumo_gap> 
7.391 
 
>  <logP> 
1.404 
 
>  <lumo_energy> 
0.77 
 
>  <melting_point> 
108.49 
 
>  <molecular_refractivity> 
45.94 
 
>  <oscillator_strength_1> 
0.0015 
 
>  <oscillator_strength_2> 
0.0014 
 
>  <oscillator_strength_3> 
0.0009 
 
>  <oscillator_strength_4> 
0.0074 
 
>  <open_babel_can_smiles> 
OCC1(CCCCC1)CC(=O)O 
 
>  <mulliken_charges> 
28 
1   -0.254915 
2   -0.270091 
3   -0.272387 
4   -0.276207 
5   -0.283704 
6   -0.398604 
7   -0.043316 
8   0.582548 
9   0.062882 
10   -0.64333 
11   -0.457771 
12   -0.600068 
13   0.134087 
14   0.133738 
15   0.129405 
16   0.139053 
17   0.141424 
18   0.131302 
19   0.130309 
20   0.144417 
21   0.148235 
22   0.159889 
23   0.173831 
24   0.153051 
25   0.14454 
26   0.131875 
27   0.41441 
28   0.445395 
 
>  <lowdin_charges> 
28 
1   -0.27736 
2   -0.281831 
3   -0.27879 
4   -0.276829 
5   -0.286666 
6   -0.319287 
7   -0.141325 
8   0.189572 
9   -0.00549 
10   -0.460235 
11   -0.263333 
12   -0.377803 
13   0.139828 
14   0.145703 
15   0.135787 
16   0.149312 
17   0.150644 
18   0.136978 
19   0.142752 
20   0.148057 
21   0.150741 
22   0.158396 
23   0.170127 
24   0.159701 
25   0.141779 
26   0.13463 
27   0.359354 
28   0.35559 
 
$$$$ 
 
