PCCDB-ID:  21318 
public computational chemistry database (PCCDB) project, http://pccdb.org 
 
 17 17  0  0  0  0  0  0  0  0999 V2000 
    2.4986   -0.4757   -1.0586 C   0  0  0  0  0  0  0  0  0  0  0  0 
    4.3909    1.0300    2.2641 C   0  0  0  0  0  0  0  0  0  0  0  0 
    3.4196    3.0956    1.8481 C   0  0  0  0  0  0  0  0  0  0  0  0 
    3.0017    1.2706    0.4347 C   0  0  0  0  0  0  0  0  0  0  0  0 
    5.1391    0.2637    2.9591 N   0  0  0  0  0  0  0  0  0  0  0  0 
    4.1009    5.5441    3.9272 N   0  0  0  0  0  0  0  0  0  0  0  0 
    4.1859    2.3996    2.6033 N   0  0  0  0  0  0  0  0  0  0  0  0 
    3.7480    0.4975    1.1245 N   0  0  0  0  0  0  0  0  0  0  0  0 
    2.7805    2.6063    0.7310 N   0  0  0  0  0  0  0  0  0  0  0  0 
    3.1261    4.4542    2.0555 N   0  0  0  0  0  0  0  0  0  0  0  0 
    3.6724    4.9615    3.0570 N   0  0  0  0  0  0  0  0  0  0  0  0 
    2.3347    0.9000   -0.6622 O   0  0  0  0  0  0  0  0  0  0  0  0 
    1.8900   -0.5839   -1.9564 H   0  0  0  0  0  0  0  0  0  0  0  0 
    2.1512   -1.1423   -0.2663 H   0  0  0  0  0  0  0  0  0  0  0  0 
    3.5494   -0.6869   -1.2688 H   0  0  0  0  0  0  0  0  0  0  0  0 
    5.5188    0.8099    3.7369 H   0  0  0  0  0  0  0  0  0  0  0  0 
    2.1807    3.1852    0.1594 H   0  0  0  0  0  0  0  0  0  0  0  0 
  1 12  1  0  0  0  0 
  1 14  1  0  0  0  0 
  2  7  2  0  0  0  0 
  2  5  1  0  0  0  0 
  3 10  1  0  0  0  0 
  3  7  2  0  0  0  0 
  4  9  1  0  0  0  0 
  4  8  2  0  0  0  0 
  5 16  1  0  0  0  0 
  8  2  2  0  0  0  0 
  9  3  1  0  0  0  0 
 10 11  2  0  0  0  0 
 11  6  2  0  0  0  0 
 12  4  1  0  0  0  0 
 13  1  1  0  0  0  0 
 15  1  1  0  0  0  0 
 17  9  1  0  0  0  0 
M  RAD  2   5   2   6   2 
M  END 
>  <HBA> 
6 
 
>  <HBD> 
1 
 
>  <TPSA> 
123.67 
 
>  <cid> 
21318 
 
>  <dipole> 
5.16 
 
>  <excitation_energy_1> 
3.745 
 
>  <excitation_energy_2> 
3.973 
 
>  <excitation_energy_3> 
4.568 
 
>  <excitation_energy_4> 
4.62 
 
>  <homo_energy> 
-6.253 
 
>  <homo_lumo_gap> 
4.501 
 
>  <logP> 
0.438 
 
>  <lumo_energy> 
-1.752 
 
>  <melting_point> 
161.06 
 
>  <molecular_refractivity> 
36.26 
 
>  <oscillator_strength_1> 
0.0001 
 
>  <oscillator_strength_2> 
0.0139 
 
>  <oscillator_strength_3> 
0.0007 
 
>  <oscillator_strength_4> 
0.0013 
 
>  <open_babel_can_smiles> 
COC1=[N]=[C](=[N]=C(N1)N=[N]=[N])[NH] 
 
>  <mulliken_charges> 
17 
1   -0.215713 
2   0.52001 
3   0.746886 
4   0.771915 
5   -0.612182 
6   -0.194927 
7   -0.51582 
8   -0.489771 
9   -0.706128 
10   -0.479598 
11   0.477573 
12   -0.495244 
13   0.169543 
14   0.186195 
15   0.186217 
16   0.286176 
17   0.364869 
 
>  <lowdin_charges> 
17 
1   -0.268055 
2   0.107992 
3   0.142602 
4   0.180446 
5   -0.389536 
6   -0.018968 
7   -0.241993 
8   -0.213542 
9   -0.234083 
10   -0.19213 
11   0.237531 
12   -0.184069 
13   0.163678 
14   0.169574 
15   0.167192 
16   0.256495 
17   0.316867 
 
$$$$ 
 
