PCCDB-ID:  7669 
public computational chemistry database (PCCDB) project, http://pccdb.org 
 
 20 20  0  0  0  0  0  0  0  0999 V2000 
    1.3421   -1.1638    0.3678 C   0  0  0  0  0  0  0  0  0  0  0  0 
    7.5075   -0.2207   -1.4248 C   0  0  0  0  0  0  0  0  0  0  0  0 
    6.8103   -0.9330   -2.4011 C   0  0  0  0  0  0  0  0  0  0  0  0 
    6.8139    0.3224   -0.3404 C   0  0  0  0  0  0  0  0  0  0  0  0 
    5.4283   -1.1006   -2.2908 C   0  0  0  0  0  0  0  0  0  0  0  0 
    5.4329    0.1584   -0.2357 C   0  0  0  0  0  0  0  0  0  0  0  0 
    3.2183   -0.7069   -1.1149 C   0  0  0  0  0  0  0  0  0  0  0  0 
    4.7231   -0.5537   -1.2128 C   0  0  0  0  0  0  0  0  0  0  0  0 
    2.7849   -0.9929    0.2513 N   0  0  0  0  0  0  0  0  0  0  0  0 
    1.0883   -1.4321    1.3986 H   0  0  0  0  0  0  0  0  0  0  0  0 
    0.9173   -1.9331   -0.3047 H   0  0  0  0  0  0  0  0  0  0  0  0 
    0.8446   -0.2140    0.1373 H   0  0  0  0  0  0  0  0  0  0  0  0 
    8.5838   -0.0921   -1.5057 H   0  0  0  0  0  0  0  0  0  0  0  0 
    7.3413   -1.3649   -3.2456 H   0  0  0  0  0  0  0  0  0  0  0  0 
    7.3506    0.8770    0.4253 H   0  0  0  0  0  0  0  0  0  0  0  0 
    4.8905   -1.6633   -3.0511 H   0  0  0  0  0  0  0  0  0  0  0  0 
    4.8893    0.5710    0.6091 H   0  0  0  0  0  0  0  0  0  0  0  0 
    2.8802   -1.4681   -1.8452 H   0  0  0  0  0  0  0  0  0  0  0  0 
    2.7300    0.2328   -1.4151 H   0  0  0  0  0  0  0  0  0  0  0  0 
    3.2580   -1.8345    0.5762 H   0  0  0  0  0  0  0  0  0  0  0  0 
  1 10  1  0  0  0  0 
  2  4  2  0  0  0  0 
  3  5  2  0  0  0  0 
  3  2  1  0  0  0  0 
  4  6  1  0  0  0  0 
  4 15  1  0  0  0  0 
  5  8  1  0  0  0  0 
  6 17  1  0  0  0  0 
  7  9  1  0  0  0  0 
  8  7  1  0  0  0  0 
  8  6  2  0  0  0  0 
  9  1  1  0  0  0  0 
  9 20  1  0  0  0  0 
 11  1  1  0  0  0  0 
 12  1  1  0  0  0  0 
 13  2  1  0  0  0  0 
 14  3  1  0  0  0  0 
 16  5  1  0  0  0  0 
 18  7  1  0  0  0  0 
 19  7  1  0  0  0  0 
M  END 
>  <HBA> 
1 
 
>  <HBD> 
1 
 
>  <TPSA> 
12.03 
 
>  <cid> 
7669 
 
>  <dipole> 
0.96 
 
>  <excitation_energy_1> 
5.08 
 
>  <excitation_energy_2> 
5.169 
 
>  <excitation_energy_3> 
5.39 
 
>  <excitation_energy_4> 
5.554 
 
>  <homo_energy> 
-5.981 
 
>  <homo_lumo_gap> 
6.079 
 
>  <logP> 
1.797 
 
>  <lumo_energy> 
0.098 
 
>  <melting_point> 
33.67 
 
>  <molecular_refractivity> 
39.02 
 
>  <oscillator_strength_1> 
0.0009 
 
>  <oscillator_strength_2> 
0.0046 
 
>  <oscillator_strength_3> 
0.0052 
 
>  <oscillator_strength_4> 
0.0086 
 
>  <open_babel_can_smiles> 
CNCc1ccccc1 
 
>  <mulliken_charges> 
20 
1   -0.29799 
2   -0.129134 
3   -0.128922 
4   -0.131439 
5   -0.186224 
6   -0.165482 
7   -0.186562 
8   0.130143 
9   -0.540115 
10   0.150289 
11   0.120047 
12   0.152134 
13   0.126137 
14   0.126399 
15   0.127327 
16   0.120766 
17   0.14526 
18   0.115644 
19   0.15418 
20   0.297542 
 
>  <lowdin_charges> 
20 
1   -0.35994 
2   -0.158554 
3   -0.158419 
4   -0.15751 
5   -0.170204 
6   -0.160494 
7   -0.199166 
8   -0.014454 
9   -0.360506 
10   0.150924 
11   0.122233 
12   0.148871 
13   0.154034 
14   0.156873 
15   0.157403 
16   0.154307 
17   0.16723 
18   0.121988 
19   0.150526 
20   0.254859 
 
$$$$ 
 
