PCCDB-ID:  69035 
public computational chemistry database (PCCDB) project, http://pccdb.org 
 
 28 28  0  0  0  0  0  0  0  0999 V2000 
    9.7201   -2.3677   -0.2816 C   0  0  0  0  0  0  0  0  0  0  0  0 
    2.6160   -8.1737    3.7763 C   0  0  0  0  0  0  0  0  0  0  0  0 
    8.6946   -3.3041    0.3673 C   0  0  0  0  0  0  0  0  0  0  0  0 
    3.7393   -7.5749    1.5863 C   0  0  0  0  0  0  0  0  0  0  0  0 
    3.1835   -5.7971    3.1174 C   0  0  0  0  0  0  0  0  0  0  0  0 
    4.2526   -6.6489    0.6806 C   0  0  0  0  0  0  0  0  0  0  0  0 
    3.6913   -4.8557    2.2261 C   0  0  0  0  0  0  0  0  0  0  0  0 
    7.3261   -3.1753   -0.2839 C   0  0  0  0  0  0  0  0  0  0  0  0 
    3.1982   -7.1668    2.8135 C   0  0  0  0  0  0  0  0  0  0  0  0 
    4.2277   -5.2949    1.0147 C   0  0  0  0  0  0  0  0  0  0  0  0 
    4.2908   -2.7876    0.1293 O   0  0  0  0  0  0  0  0  0  0  0  0 
    4.8583   -4.6551   -1.4884 O   0  0  0  0  0  0  0  0  0  0  0  0 
    6.4331   -4.0967    0.4065 O   0  0  0  0  0  0  0  0  0  0  0  0 
    4.8809   -4.1009   -0.1340 S   0  0  0  0  0  0  0  0  0  0  0  0 
   10.6972   -2.4699    0.2015 H   0  0  0  0  0  0  0  0  0  0  0  0 
    9.4145   -1.3181   -0.1962 H   0  0  0  0  0  0  0  0  0  0  0  0 
    9.8501   -2.5923   -1.3468 H   0  0  0  0  0  0  0  0  0  0  0  0 
    3.0181   -9.1762    3.6003 H   0  0  0  0  0  0  0  0  0  0  0  0 
    1.5249   -8.2337    3.6691 H   0  0  0  0  0  0  0  0  0  0  0  0 
    2.8245   -7.9002    4.8161 H   0  0  0  0  0  0  0  0  0  0  0  0 
    8.5988   -3.0812    1.4367 H   0  0  0  0  0  0  0  0  0  0  0  0 
    9.0272   -4.3460    0.2876 H   0  0  0  0  0  0  0  0  0  0  0  0 
    3.7566   -8.6322    1.3345 H   0  0  0  0  0  0  0  0  0  0  0  0 
    2.7652   -5.4632    4.0637 H   0  0  0  0  0  0  0  0  0  0  0  0 
    4.6608   -6.9647   -0.2735 H   0  0  0  0  0  0  0  0  0  0  0  0 
    3.6690   -3.7960    2.4562 H   0  0  0  0  0  0  0  0  0  0  0  0 
    7.3589   -3.4463   -1.3450 H   0  0  0  0  0  0  0  0  0  0  0  0 
    6.9282   -2.1594   -0.1867 H   0  0  0  0  0  0  0  0  0  0  0  0 
  1 16  1  0  0  0  0 
  1 15  1  0  0  0  0 
  1  3  1  0  0  0  0 
  2 20  1  0  0  0  0 
  3 21  1  0  0  0  0 
  4  9  2  0  0  0  0 
  5 24  1  0  0  0  0 
  6 10  2  0  0  0  0 
  6  4  1  0  0  0  0 
  7 26  1  0  0  0  0 
  7  5  2  0  0  0  0 
  8 28  1  0  0  0  0 
  8  3  1  0  0  0  0 
  8 13  1  0  0  0  0 
  9  5  1  0  0  0  0 
  9  2  1  0  0  0  0 
 10  7  1  0  0  0  0 
 12 14  1  0  0  0  0 
 14 11  1  0  0  0  0 
 14 13  1  0  0  0  0 
 14 10  1  0  0  0  0 
 17  1  1  0  0  0  0 
 18  2  1  0  0  0  0 
 19  2  1  0  0  0  0 
 22  3  1  0  0  0  0 
 23  4  1  0  0  0  0 
 25  6  1  0  0  0  0 
 27  8  1  0  0  0  0 
M  RAD  2  11   2  12   2 
M  END 
>  <HBA> 
3 
 
>  <HBD> 
0 
 
>  <TPSA> 
51.75 
 
>  <cid> 
69035 
 
>  <dipole> 
4.15 
 
>  <excitation_energy_1> 
5.184 
 
>  <excitation_energy_2> 
5.64 
 
>  <excitation_energy_3> 
5.786 
 
>  <excitation_energy_4> 
6.37 
 
>  <homo_energy> 
-7.187 
 
>  <homo_lumo_gap> 
6.142 
 
>  <logP> 
3.191 
 
>  <lumo_energy> 
-1.045 
 
>  <melting_point> 
33.7 
 
>  <molecular_refractivity> 
55.2 
 
>  <oscillator_strength_1> 
0.0065 
 
>  <oscillator_strength_2> 
0.2065 
 
>  <oscillator_strength_3> 
0.0028 
 
>  <oscillator_strength_4> 
0.0064 
 
>  <open_babel_can_smiles> 
CCCOS(c1ccc(cc1)C)([O])[O] 
 
>  <mulliken_charges> 
28 
1   -0.45517 
2   -0.53111 
3   -0.270976 
4   -0.177318 
5   -0.174841 
6   -0.129281 
7   -0.130297 
8   -0.045349 
9   0.182162 
10   -0.161258 
11   -0.52454 
12   -0.521997 
13   -0.539843 
14   1.231741 
15   0.155381 
16   0.151645 
17   0.151632 
18   0.163277 
19   0.176039 
20   0.165796 
21   0.154904 
22   0.154925 
23   0.138385 
24   0.138273 
25   0.179639 
26   0.179596 
27   0.168706 
28   0.169879 
 
>  <lowdin_charges> 
28 
1   -0.440871 
2   -0.43881 
3   -0.273022 
4   -0.160414 
5   -0.160156 
6   -0.126724 
7   -0.126165 
8   -0.128406 
9   0.021758 
10   -0.182982 
11   -0.578948 
12   -0.577015 
13   -0.420589 
14   1.343056 
15   0.157173 
16   0.150324 
17   0.150099 
18   0.161084 
19   0.16677 
20   0.162348 
21   0.151151 
22   0.151623 
23   0.161285 
24   0.162699 
25   0.183926 
26   0.182507 
27   0.15343 
28   0.154866 
 
$$$$ 
 
