PCCDB-ID:  18434 
public computational chemistry database (PCCDB) project, http://pccdb.org 
 
 38 39  0  0  0  0  0  0  0  0999 V2000 
    1.3834   -0.3646    1.1866 C   0  0  0  0  0  0  0  0  0  0  0  0 
    3.0131    1.1597    0.3851 C   0  0  0  0  0  0  0  0  0  0  0  0 
    1.5447   -4.0517   -5.1043 C   0  0  0  0  0  0  0  0  0  0  0  0 
    0.6002   -2.9287   -4.6547 C   0  0  0  0  0  0  0  0  0  0  0  0 
    2.5145   -4.4413   -3.9799 C   0  0  0  0  0  0  0  0  0  0  0  0 
    1.3853   -1.7191   -4.1236 C   0  0  0  0  0  0  0  0  0  0  0  0 
    3.2811   -3.2203   -3.4422 C   0  0  0  0  0  0  0  0  0  0  0  0 
    3.2167   -0.7926   -2.6710 C   0  0  0  0  0  0  0  0  0  0  0  0 
    1.5907   -2.4119   -1.6777 C   0  0  0  0  0  0  0  0  0  0  0  0 
    4.0235   -0.8963   -1.3672 C   0  0  0  0  0  0  0  0  0  0  0  0 
    2.4826   -2.4231   -0.4234 C   0  0  0  0  0  0  0  0  0  0  0  0 
    2.3676   -2.0534   -2.9736 C   0  0  0  0  0  0  0  0  0  0  0  0 
    2.2429   -0.0405    0.0457 N   0  0  0  0  0  0  0  0  0  0  0  0 
    3.2074   -1.1615   -0.1614 N   0  0  0  0  0  0  0  0  0  0  0  0 
    0.8166    0.5328    1.4494 H   0  0  0  0  0  0  0  0  0  0  0  0 
    1.9564   -0.6954    2.0707 H   0  0  0  0  0  0  0  0  0  0  0  0 
    0.6572   -1.1386    0.9257 H   0  0  0  0  0  0  0  0  0  0  0  0 
    2.3105    1.9389    0.6939 H   0  0  0  0  0  0  0  0  0  0  0  0 
    3.5517    1.5403   -0.4860 H   0  0  0  0  0  0  0  0  0  0  0  0 
    3.7366    0.9830    1.1999 H   0  0  0  0  0  0  0  0  0  0  0  0 
    2.1235   -3.7071   -5.9747 H   0  0  0  0  0  0  0  0  0  0  0  0 
    0.9722   -4.9271   -5.4371 H   0  0  0  0  0  0  0  0  0  0  0  0 
   -0.0763   -3.3089   -3.8767 H   0  0  0  0  0  0  0  0  0  0  0  0 
   -0.0399   -2.6140   -5.4891 H   0  0  0  0  0  0  0  0  0  0  0  0 
    3.2301   -5.1921   -4.3394 H   0  0  0  0  0  0  0  0  0  0  0  0 
    1.9535   -4.9227   -3.1662 H   0  0  0  0  0  0  0  0  0  0  0  0 
    0.6923   -0.9351   -3.7894 H   0  0  0  0  0  0  0  0  0  0  0  0 
    1.9634   -1.2853   -4.9546 H   0  0  0  0  0  0  0  0  0  0  0  0 
    3.9312   -2.8386   -4.2438 H   0  0  0  0  0  0  0  0  0  0  0  0 
    3.9539   -3.5393   -2.6367 H   0  0  0  0  0  0  0  0  0  0  0  0 
    3.9002   -0.5955   -3.5089 H   0  0  0  0  0  0  0  0  0  0  0  0 
    2.5468    0.0723   -2.5920 H   0  0  0  0  0  0  0  0  0  0  0  0 
    0.7964   -1.6692   -1.5324 H   0  0  0  0  0  0  0  0  0  0  0  0 
    1.0975   -3.3874   -1.7675 H   0  0  0  0  0  0  0  0  0  0  0  0 
    4.6222    0.0051   -1.2143 H   0  0  0  0  0  0  0  0  0  0  0  0 
    4.7417   -1.7229   -1.4204 H   0  0  0  0  0  0  0  0  0  0  0  0 
    3.2625   -3.1880   -0.5144 H   0  0  0  0  0  0  0  0  0  0  0  0 
    1.9002   -2.7018    0.4582 H   0  0  0  0  0  0  0  0  0  0  0  0 
  1 15  1  0  0  0  0 
  1 16  1  0  0  0  0 
  2 18  1  0  0  0  0 
  2 20  1  0  0  0  0 
  3  4  1  0  0  0  0 
  3  5  1  0  0  0  0 
  4  6  1  0  0  0  0 
  4 23  1  0  0  0  0 
  5  7  1  0  0  0  0 
  5 26  1  0  0  0  0 
  6 27  1  0  0  0  0 
  6 12  1  0  0  0  0 
  7 12  1  0  0  0  0 
  7 30  1  0  0  0  0 
  8 32  1  0  0  0  0 
  8 10  1  0  0  0  0 
  9 33  1  0  0  0  0 
  9 11  1  0  0  0  0 
 10 35  1  0  0  0  0 
 10 14  1  0  0  0  0 
 11 14  1  0  0  0  0 
 11 38  1  0  0  0  0 
 12  8  1  0  0  0  0 
 12  9  1  0  0  0  0 
 13  2  1  0  0  0  0 
 13  1  1  0  0  0  0 
 14 13  1  0  0  0  0 
 17  1  1  0  0  0  0 
 19  2  1  0  0  0  0 
 21  3  1  0  0  0  0 
 22  3  1  0  0  0  0 
 24  4  1  0  0  0  0 
 25  5  1  0  0  0  0 
 28  6  1  0  0  0  0 
 29  7  1  0  0  0  0 
 31  8  1  0  0  0  0 
 34  9  1  0  0  0  0 
 36 10  1  0  0  0  0 
 37 11  1  0  0  0  0 
M  END 
>  <HBA> 
2 
 
>  <HBD> 
0 
 
>  <TPSA> 
6.48 
 
>  <cid> 
18434 
 
>  <dipole> 
0.27 
 
>  <excitation_energy_1> 
4.387 
 
>  <excitation_energy_2> 
4.707 
 
>  <excitation_energy_3> 
4.77 
 
>  <excitation_energy_4> 
4.878 
 
>  <homo_energy> 
-4.789 
 
>  <homo_lumo_gap> 
6.852 
 
>  <logP> 
2.447 
 
>  <lumo_energy> 
2.063 
 
>  <melting_point> 
38.57 
 
>  <molecular_refractivity> 
65.02 
 
>  <oscillator_strength_1> 
0.0138 
 
>  <oscillator_strength_2> 
0.0003 
 
>  <oscillator_strength_3> 
0.0021 
 
>  <oscillator_strength_4> 
0.0065 
 
>  <open_babel_can_smiles> 
CN(N1CCC2(CC1)CCCCC2)C 
 
>  <mulliken_charges> 
38 
1   -0.296224 
2   -0.291534 
3   -0.253069 
4   -0.26371 
5   -0.264107 
6   -0.270129 
7   -0.275571 
8   -0.270221 
9   -0.276687 
10   -0.162486 
11   -0.16558 
12   0.105305 
13   -0.281791 
14   -0.281255 
15   0.147716 
16   0.132554 
17   0.153378 
18   0.146079 
19   0.152658 
20   0.132575 
21   0.125479 
22   0.12735 
23   0.130963 
24   0.128399 
25   0.128788 
26   0.129946 
27   0.127831 
28   0.120731 
29   0.123464 
30   0.126802 
31   0.119293 
32   0.147784 
33   0.146267 
34   0.128027 
35   0.140906 
36   0.143203 
37   0.143886 
38   0.14298 
 
>  <lowdin_charges> 
38 
1   -0.365978 
2   -0.365946 
3   -0.278919 
4   -0.282069 
5   -0.281797 
6   -0.279056 
7   -0.284024 
8   -0.29395 
9   -0.297148 
10   -0.215969 
11   -0.218027 
12   0.002258 
13   -0.143357 
14   -0.143513 
15   0.153655 
16   0.130733 
17   0.149793 
18   0.152917 
19   0.149895 
20   0.131357 
21   0.13681 
22   0.142524 
23   0.139412 
24   0.143896 
25   0.144239 
26   0.13824 
27   0.142837 
28   0.13734 
29   0.139117 
30   0.140347 
31   0.140687 
32   0.151118 
33   0.150646 
34   0.142061 
35   0.146858 
36   0.146774 
37   0.147683 
38   0.148556 
 
$$$$ 
 
