PCCDB-ID:  18091 
public computational chemistry database (PCCDB) project, http://pccdb.org 
 
 21 22  0  0  0  0  0  0  0  0999 V2000 
    1.7107    0.9273    0.3949 C   0  0  0  0  0  0  0  0  0  0  0  0 
    0.4043    1.3997    0.5539 C   0  0  0  0  0  0  0  0  0  0  0  0 
    3.3986   -0.7140   -0.1938 C   0  0  0  0  0  0  0  0  0  0  0  0 
    0.9256   -1.2477   -0.4194 C   0  0  0  0  0  0  0  0  0  0  0  0 
    3.3697   -3.0458   -1.0614 C   0  0  0  0  0  0  0  0  0  0  0  0 
    5.4602   -1.9042   -0.6145 C   0  0  0  0  0  0  0  0  0  0  0  0 
   -2.5732   -0.4795   -0.1951 C   0  0  0  0  0  0  0  0  0  0  0  0 
    1.9979   -0.3713   -0.0818 C   0  0  0  0  0  0  0  0  0  0  0  0 
    4.0272   -1.8571   -0.6129 C   0  0  0  0  0  0  0  0  0  0  0  0 
   -0.6127    0.5251    0.2167 C   0  0  0  0  0  0  0  0  0  0  0  0 
   -0.3489   -0.7654   -0.2569 C   0  0  0  0  0  0  0  0  0  0  0  0 
    2.8490   -4.0207   -1.4276 N   0  0  0  0  0  0  0  0  0  0  0  0 
    6.6237   -1.9343   -0.6148 N   0  0  0  0  0  0  0  0  0  0  0  0 
   -1.9550    0.7317    0.2781 O   0  0  0  0  0  0  0  0  0  0  0  0 
   -1.5325   -1.4090   -0.5063 O   0  0  0  0  0  0  0  0  0  0  0  0 
    2.5372    1.5846    0.6483 H   0  0  0  0  0  0  0  0  0  0  0  0 
    0.1952    2.3979    0.9212 H   0  0  0  0  0  0  0  0  0  0  0  0 
    4.0780    0.0792    0.1089 H   0  0  0  0  0  0  0  0  0  0  0  0 
    1.0912   -2.2514   -0.7868 H   0  0  0  0  0  0  0  0  0  0  0  0 
   -3.1537   -0.2572   -1.0971 H   0  0  0  0  0  0  0  0  0  0  0  0 
   -3.2112   -0.8891    0.5948 H   0  0  0  0  0  0  0  0  0  0  0  0 
  1  2  1  0  0  0  0 
  1 16  1  0  0  0  0 
  2 17  1  0  0  0  0 
  3  8  1  0  0  0  0 
  3 18  1  0  0  0  0 
  4 11  2  0  0  0  0 
  4  8  1  0  0  0  0 
  5  9  1  0  0  0  0 
  6  9  1  0  0  0  0 
  7 14  1  0  0  0  0 
  7 21  1  0  0  0  0 
  8  1  2  0  0  0  0 
  9  3  2  0  0  0  0 
 10 14  1  0  0  0  0 
 10  2  2  0  0  0  0 
 11 10  1  0  0  0  0 
 12  5  3  0  0  0  0 
 13  6  3  0  0  0  0 
 15 11  1  0  0  0  0 
 15  7  1  0  0  0  0 
 19  4  1  0  0  0  0 
 20  7  1  0  0  0  0 
M  END 
>  <HBA> 
4 
 
>  <HBD> 
0 
 
>  <TPSA> 
66.04 
 
>  <cid> 
18091 
 
>  <dipole> 
7.88 
 
>  <excitation_energy_1> 
3.434 
 
>  <excitation_energy_2> 
4.075 
 
>  <excitation_energy_3> 
4.786 
 
>  <excitation_energy_4> 
5.225 
 
>  <homo_energy> 
-6.332 
 
>  <homo_lumo_gap> 
3.614 
 
>  <logP> 
1.846 
 
>  <lumo_energy> 
-2.718 
 
>  <melting_point> 
132.19 
 
>  <molecular_refractivity> 
51.71 
 
>  <oscillator_strength_1> 
0.4213 
 
>  <oscillator_strength_2> 
0.2523 
 
>  <oscillator_strength_3> 
0.0646 
 
>  <oscillator_strength_4> 
0.0003 
 
>  <open_babel_can_smiles> 
N#CC(=Cc1ccc2c(c1)OCO2)C#N 
 
>  <mulliken_charges> 
21 
1   -0.196685 
2   -0.178888 
3   -0.170634 
4   -0.235274 
5   0.313325 
6   0.282421 
7   0.186834 
8   0.160155 
9   0.113165 
10   0.351662 
11   0.336028 
12   -0.497526 
13   -0.466077 
14   -0.516561 
15   -0.521467 
16   0.153294 
17   0.163529 
18   0.175323 
19   0.195475 
20   0.175403 
21   0.176499 
 
>  <lowdin_charges> 
21 
1   -0.138726 
2   -0.180156 
3   -0.07469 
4   -0.170992 
5   -0.001731 
6   -0.008615 
7   0.019561 
8   -0.019991 
9   -0.058817 
10   0.096199 
11   0.077147 
12   -0.105737 
13   -0.104741 
14   -0.18459 
15   -0.191501 
16   0.170458 
17   0.179076 
18   0.18479 
19   0.196115 
20   0.157382 
21   0.159561 
 
$$$$ 
 
