PCCDB-ID:  69475 
public computational chemistry database (PCCDB) project, http://pccdb.org 
 
 17 17  0  0  0  0  0  0  0  0999 V2000 
   -1.4068   -0.0727    0.1167 C   0  0  0  0  0  0  0  0  0  0  0  0 
   -0.7364    1.1053    0.4562 C   0  0  0  0  0  0  0  0  0  0  0  0 
   -0.6896   -1.1768   -0.3516 C   0  0  0  0  0  0  0  0  0  0  0  0 
    0.6476    1.1847    0.3305 C   0  0  0  0  0  0  0  0  0  0  0  0 
    0.6944   -1.1078   -0.4803 C   0  0  0  0  0  0  0  0  0  0  0  0 
    2.7950    0.1557   -0.2699 C   0  0  0  0  0  0  0  0  0  0  0  0 
    4.0041    0.2239   -0.3752 C   0  0  0  0  0  0  0  0  0  0  0  0 
    1.3780    0.0761   -0.1408 C   0  0  0  0  0  0  0  0  0  0  0  0 
    5.4404    0.3704   -0.4984 C   0  0  0  0  0  0  0  0  0  0  0  0 
    6.0532    1.3624   -0.1872 O   0  0  0  0  0  0  0  0  0  0  0  0 
    6.0796   -0.7193   -1.0044 O   0  0  0  0  0  0  0  0  0  0  0  0 
   -2.4870   -0.1308    0.2174 H   0  0  0  0  0  0  0  0  0  0  0  0 
   -1.2938    1.9648    0.8173 H   0  0  0  0  0  0  0  0  0  0  0  0 
   -1.2103   -2.0926   -0.6164 H   0  0  0  0  0  0  0  0  0  0  0  0 
    1.1763    2.0963    0.5902 H   0  0  0  0  0  0  0  0  0  0  0  0 
    1.2577   -1.9611   -0.8451 H   0  0  0  0  0  0  0  0  0  0  0  0 
    5.4265   -1.4120   -1.2027 H   0  0  0  0  0  0  0  0  0  0  0  0 
  1 12  1  0  0  0  0 
  1  2  2  0  0  0  0 
  2 13  1  0  0  0  0 
  3  1  1  0  0  0  0 
  4  2  1  0  0  0  0 
  4 15  1  0  0  0  0 
  5  3  2  0  0  0  0 
  5  8  1  0  0  0  0 
  6  8  1  0  0  0  0 
  7  6  3  0  0  0  0 
  8  4  2  0  0  0  0 
  9  7  1  0  0  0  0 
  9 10  2  0  0  0  0 
 11  9  1  0  0  0  0 
 14  3  1  0  0  0  0 
 16  5  1  0  0  0  0 
 17 11  1  0  0  0  0 
M  END 
>  <HBA> 
2 
 
>  <HBD> 
1 
 
>  <TPSA> 
37.3 
 
>  <cid> 
69475 
 
>  <dipole> 
5.99 
 
>  <excitation_energy_1> 
4.343 
 
>  <excitation_energy_2> 
4.608 
 
>  <excitation_energy_3> 
4.715 
 
>  <excitation_energy_4> 
5.164 
 
>  <homo_energy> 
-6.901 
 
>  <homo_lumo_gap> 
4.993 
 
>  <logP> 
1.123 
 
>  <lumo_energy> 
-1.908 
 
>  <melting_point> 
100.33 
 
>  <molecular_refractivity> 
40.96 
 
>  <oscillator_strength_1> 
0.001 
 
>  <oscillator_strength_2> 
0.5505 
 
>  <oscillator_strength_3> 
0.0137 
 
>  <oscillator_strength_4> 
0.0001 
 
>  <open_babel_can_smiles> 
OC(=O)C#Cc1ccccc1 
 
>  <mulliken_charges> 
17 
1   -0.118167 
2   -0.131381 
3   -0.13185 
4   -0.129023 
5   -0.128624 
6   0.108172 
7   -0.148309 
8   0.006863 
9   0.506386 
10   -0.419858 
11   -0.564351 
12   0.14407 
13   0.145641 
14   0.143596 
15   0.159756 
16   0.144032 
17   0.413046 
 
>  <lowdin_charges> 
17 
1   -0.136478 
2   -0.151057 
3   -0.151813 
4   -0.132372 
5   -0.137731 
6   -0.009922 
7   -0.122375 
8   -0.003668 
9   0.207822 
10   -0.215586 
11   -0.348017 
12   0.163016 
13   0.167009 
14   0.165519 
15   0.174636 
16   0.167825 
17   0.363192 
 
$$$$ 
 
