PCCDB-ID:  39066 
public computational chemistry database (PCCDB) project, http://pccdb.org 
 
 33 33  0  0  1  0  0  0  0  0999 V2000 
    4.6007   -2.0922    2.0921 C   0  0  0  0  0  0  0  0  0  0  0  0 
    7.0897   -4.6531   -4.6775 C   0  0  0  0  0  0  0  0  0  0  0  0 
    6.6793   -0.1893   -2.7586 C   0  0  0  0  0  0  0  0  0  0  0  0 
    4.1407   -1.1588    0.9677 C   0  0  0  0  0  0  0  0  0  0  0  0 
    6.2236   -3.7565   -3.7873 C   0  0  0  0  0  0  0  0  0  0  0  0 
    4.9456   -1.3277   -0.3278 C   0  0  0  0  0  0  0  0  0  0  0  0 
    5.6155   -2.5648   -4.5422 C   0  0  0  0  0  0  0  0  0  0  0  0 
    4.4779   -0.3925   -1.4534 C   0  0  0  0  0  0  0  0  0  0  0  0 
    4.4181   -0.2577   -4.0396 C   0  0  0  0  0  0  0  0  0  0  0  0 
    4.7143   -1.6977   -3.6816 C   0  0  2  0  0  0  0  0  0  0  0  0 
    5.2063   -0.5708   -2.7842 C   0  0  1  0  0  0  0  0  0  0  0  0 
    4.0087   -1.9454    3.0029 H   0  0  0  0  0  0  0  0  0  0  0  0 
    5.6531   -1.9168    2.3474 H   0  0  0  0  0  0  0  0  0  0  0  0 
    4.5039   -3.1446    1.7979 H   0  0  0  0  0  0  0  0  0  0  0  0 
    7.5065   -5.4961   -4.1145 H   0  0  0  0  0  0  0  0  0  0  0  0 
    7.9297   -4.0933   -5.1078 H   0  0  0  0  0  0  0  0  0  0  0  0 
    6.5080   -5.0654   -5.5116 H   0  0  0  0  0  0  0  0  0  0  0  0 
    6.7962    0.8492   -2.4219 H   0  0  0  0  0  0  0  0  0  0  0  0 
    7.1394   -0.2635   -3.7484 H   0  0  0  0  0  0  0  0  0  0  0  0 
    7.2582   -0.8243   -2.0770 H   0  0  0  0  0  0  0  0  0  0  0  0 
    4.2133   -0.1151    1.3056 H   0  0  0  0  0  0  0  0  0  0  0  0 
    3.0758   -1.3354    0.7583 H   0  0  0  0  0  0  0  0  0  0  0  0 
    6.8212   -3.3834   -2.9446 H   0  0  0  0  0  0  0  0  0  0  0  0 
    5.4136   -4.3534   -3.3440 H   0  0  0  0  0  0  0  0  0  0  0  0 
    4.8711   -2.3700   -0.6705 H   0  0  0  0  0  0  0  0  0  0  0  0 
    6.0089   -1.1531   -0.1118 H   0  0  0  0  0  0  0  0  0  0  0  0 
    5.0313   -2.9401   -5.3963 H   0  0  0  0  0  0  0  0  0  0  0  0 
    6.4228   -1.9615   -4.9784 H   0  0  0  0  0  0  0  0  0  0  0  0 
    4.5835    0.6526   -1.1234 H   0  0  0  0  0  0  0  0  0  0  0  0 
    3.4020   -0.5500   -1.6153 H   0  0  0  0  0  0  0  0  0  0  0  0 
    3.3987    0.1094   -3.9416 H   0  0  0  0  0  0  0  0  0  0  0  0 
    4.9595    0.1707   -4.8814 H   0  0  0  0  0  0  0  0  0  0  0  0 
    3.8664   -2.2497   -3.2715 H   0  0  0  0  0  0  0  0  0  0  0  0 
  1 13  1  0  0  0  0 
  1 12  1  0  0  0  0 
  2 15  1  0  0  0  0 
  2  5  1  0  0  0  0 
  3 18  1  0  0  0  0 
  3 20  1  0  0  0  0 
  4 21  1  0  0  0  0 
  4  1  1  0  0  0  0 
  5 24  1  0  0  0  0 
  5 23  1  0  0  0  0 
  6 26  1  0  0  0  0 
  6  4  1  0  0  0  0 
  7  5  1  0  0  0  0 
  7 10  1  0  0  0  0 
  8 29  1  0  0  0  0 
  8  6  1  0  0  0  0 
  9 31  1  0  0  0  0 
  9 10  1  0  0  0  0 
  9 11  1  0  0  0  0 
 10 33  1  1  0  0  0 
 10 11  1  0  0  0  0 
 11  3  1  6  0  0  0 
 11  8  1  0  0  0  0 
 14  1  1  0  0  0  0 
 16  2  1  0  0  0  0 
 17  2  1  0  0  0  0 
 19  3  1  0  0  0  0 
 22  4  1  0  0  0  0 
 25  6  1  0  0  0  0 
 27  7  1  0  0  0  0 
 28  7  1  0  0  0  0 
 30  8  1  0  0  0  0 
 32  9  1  0  0  0  0 
M  END 
>  <HBA> 
0 
 
>  <HBD> 
0 
 
>  <TPSA> 
0.0 
 
>  <cid> 
39066 
 
>  <dipole> 
0.08 
 
>  <excitation_energy_1> 
6.488 
 
>  <excitation_energy_2> 
6.71 
 
>  <excitation_energy_3> 
6.757 
 
>  <excitation_energy_4> 
6.777 
 
>  <homo_energy> 
-6.898 
 
>  <homo_lumo_gap> 
9.154 
 
>  <logP> 
4.003 
 
>  <lumo_energy> 
2.256 
 
>  <melting_point> 
11.38 
 
>  <molecular_refractivity> 
52.62 
 
>  <oscillator_strength_1> 
0.0138 
 
>  <oscillator_strength_2> 
0.0026 
 
>  <oscillator_strength_3> 
0.0107 
 
>  <oscillator_strength_4> 
0.0181 
 
>  <open_babel_can_smiles> 
CCCC[C@]1(C)C[C@H]1CCC 
 
>  <mulliken_charges> 
33 
1   -0.441284 
2   -0.442555 
3   -0.476411 
4   -0.247138 
5   -0.248833 
6   -0.249758 
7   -0.25751 
8   -0.280543 
9   -0.354113 
10   -0.11334 
11   0.139502 
12   0.140926 
13   0.140722 
14   0.140974 
15   0.141331 
16   0.140344 
17   0.141006 
18   0.142474 
19   0.14213 
20   0.147403 
21   0.129969 
22   0.12885 
23   0.137796 
24   0.128845 
25   0.13087 
26   0.129185 
27   0.130172 
28   0.125108 
29   0.125975 
30   0.122249 
31   0.140397 
32   0.139571 
33   0.125686 
 
>  <lowdin_charges> 
33 
1   -0.44181 
2   -0.447312 
3   -0.438708 
4   -0.268974 
5   -0.275256 
6   -0.274645 
7   -0.270612 
8   -0.263154 
9   -0.325152 
10   -0.158959 
11   -0.007904 
12   0.148916 
13   0.144549 
14   0.144656 
15   0.149951 
16   0.146525 
17   0.146796 
18   0.148821 
19   0.149989 
20   0.149546 
21   0.137225 
22   0.136198 
23   0.142395 
24   0.139327 
25   0.138063 
26   0.136807 
27   0.142474 
28   0.140478 
29   0.137468 
30   0.137428 
31   0.15314 
32   0.154247 
33   0.147488 
 
$$$$ 
 
