PCCDB-ID:  7351 
public computational chemistry database (PCCDB) project, http://pccdb.org 
 
 26 25  0  0  0  0  0  0  0  0999 V2000 
    3.7366    1.4245   -3.9734 C   0  0  0  0  0  0  0  0  0  0  0  0 
    6.1978    1.5031   -4.5875 C   0  0  0  0  0  0  0  0  0  0  0  0 
    2.8486    0.5392    0.5088 C   0  0  0  0  0  0  0  0  0  0  0  0 
    4.5644    1.3478    2.2066 C   0  0  0  0  0  0  0  0  0  0  0  0 
    5.4342    2.5095   -2.4282 C   0  0  0  0  0  0  0  0  0  0  0  0 
    5.1768    1.3942   -3.4454 C   0  0  0  0  0  0  0  0  0  0  0  0 
    3.9055    1.6111    0.8485 C   0  0  0  0  0  0  0  0  0  0  0  0 
    4.9520    1.6427   -0.2577 C   0  0  0  0  0  0  0  0  0  0  0  0 
    5.9986    1.0291   -0.2461 O   0  0  0  0  0  0  0  0  0  0  0  0 
    4.5496    2.4293   -1.2858 O   0  0  0  0  0  0  0  0  0  0  0  0 
    3.5538    0.5873   -4.6568 H   0  0  0  0  0  0  0  0  0  0  0  0 
    3.5412    2.3537   -4.5250 H   0  0  0  0  0  0  0  0  0  0  0  0 
    3.0101    1.3613   -3.1571 H   0  0  0  0  0  0  0  0  0  0  0  0 
    6.0531    0.6972   -5.3155 H   0  0  0  0  0  0  0  0  0  0  0  0 
    7.2271    1.4377   -4.2159 H   0  0  0  0  0  0  0  0  0  0  0  0 
    6.0920    2.4553   -5.1239 H   0  0  0  0  0  0  0  0  0  0  0  0 
    2.0745    0.5156    1.2836 H   0  0  0  0  0  0  0  0  0  0  0  0 
    3.3087   -0.4542    0.4574 H   0  0  0  0  0  0  0  0  0  0  0  0 
    2.3641    0.7457   -0.4511 H   0  0  0  0  0  0  0  0  0  0  0  0 
    3.8055    1.3122    2.9959 H   0  0  0  0  0  0  0  0  0  0  0  0 
    5.2849    2.1325    2.4603 H   0  0  0  0  0  0  0  0  0  0  0  0 
    5.1019    0.3949    2.1947 H   0  0  0  0  0  0  0  0  0  0  0  0 
    5.2292    3.4918   -2.8660 H   0  0  0  0  0  0  0  0  0  0  0  0 
    6.4672    2.4774   -2.0725 H   0  0  0  0  0  0  0  0  0  0  0  0 
    5.3444    0.4418   -2.9253 H   0  0  0  0  0  0  0  0  0  0  0  0 
    3.4094    2.5888    0.8555 H   0  0  0  0  0  0  0  0  0  0  0  0 
  1  6  1  0  0  0  0 
  1 13  1  0  0  0  0 
  2 15  1  0  0  0  0 
  2  6  1  0  0  0  0 
  3  7  1  0  0  0  0 
  3 17  1  0  0  0  0 
  4 21  1  0  0  0  0 
  4 20  1  0  0  0  0 
  5 24  1  0  0  0  0 
  5 10  1  0  0  0  0 
  6 25  1  0  0  0  0 
  6  5  1  0  0  0  0 
  7 26  1  0  0  0  0 
  7  4  1  0  0  0  0 
  8  9  2  0  0  0  0 
  8  7  1  0  0  0  0 
 10  8  1  0  0  0  0 
 11  1  1  0  0  0  0 
 12  1  1  0  0  0  0 
 14  2  1  0  0  0  0 
 16  2  1  0  0  0  0 
 18  3  1  0  0  0  0 
 19  3  1  0  0  0  0 
 22  4  1  0  0  0  0 
 23  5  1  0  0  0  0 
M  END 
>  <HBA> 
2 
 
>  <HBD> 
0 
 
>  <TPSA> 
26.3 
 
>  <cid> 
7351 
 
>  <dipole> 
1.59 
 
>  <excitation_energy_1> 
5.743 
 
>  <excitation_energy_2> 
6.858 
 
>  <excitation_energy_3> 
7.261 
 
>  <excitation_energy_4> 
7.416 
 
>  <homo_energy> 
-7.195 
 
>  <homo_lumo_gap> 
7.619 
 
>  <logP> 
1.842 
 
>  <lumo_energy> 
0.425 
 
>  <melting_point> 
-15.45 
 
>  <molecular_refractivity> 
41.85 
 
>  <oscillator_strength_1> 
0.0017 
 
>  <oscillator_strength_2> 
0.0052 
 
>  <oscillator_strength_3> 
0.0093 
 
>  <oscillator_strength_4> 
0.0377 
 
>  <open_babel_can_smiles> 
CC(COC(=O)C(C)C)C 
 
>  <mulliken_charges> 
26 
1   -0.446572 
2   -0.452167 
3   -0.455726 
4   -0.440534 
5   -0.040207 
6   -0.095852 
7   -0.158412 
8   0.625613 
9   -0.484157 
10   -0.472737 
11   0.143741 
12   0.137617 
13   0.155877 
14   0.149388 
15   0.15092 
16   0.14021 
17   0.153095 
18   0.159335 
19   0.160401 
20   0.140202 
21   0.151134 
22   0.166817 
23   0.143032 
24   0.166206 
25   0.150756 
26   0.15202 
 
>  <lowdin_charges> 
26 
1   -0.448644 
2   -0.443381 
3   -0.437943 
4   -0.440951 
5   -0.133792 
6   -0.132757 
7   -0.143528 
8   0.197386 
9   -0.270229 
10   -0.195483 
11   0.151015 
12   0.145413 
13   0.153931 
14   0.154759 
15   0.151882 
16   0.146013 
17   0.155497 
18   0.155224 
19   0.155651 
20   0.150382 
21   0.155599 
22   0.161353 
23   0.148289 
24   0.157422 
25   0.15072 
26   0.156172 
 
$$$$ 
 
