PCCDB-ID:  13778 
public computational chemistry database (PCCDB) project, http://pccdb.org 
 
 28 28  0  0  0  0  0  0  0  0999 V2000 
    1.0882   -0.4210   -0.0359 C   0  0  0  0  0  0  0  0  0  0  0  0 
    2.2143    1.4509    3.0057 C   0  0  0  0  0  0  0  0  0  0  0  0 
    5.1688    6.1768   -1.0597 C   0  0  0  0  0  0  0  0  0  0  0  0 
    2.5427   -0.1883    0.3753 C   0  0  0  0  0  0  0  0  0  0  0  0 
    2.0973    1.9434    1.5527 C   0  0  0  0  0  0  0  0  0  0  0  0 
    4.4021    3.7031   -0.6337 C   0  0  0  0  0  0  0  0  0  0  0  0 
    4.3283    1.4194    0.6798 C   0  0  0  0  0  0  0  0  0  0  0  0 
    5.0608    4.8640   -0.3628 C   0  0  0  0  0  0  0  0  0  0  0  0 
    4.7376    2.8494    0.4592 C   0  0  0  0  0  0  0  0  0  0  0  0 
    5.5287    3.4495    1.3206 N   0  0  0  0  0  0  0  0  0  0  0  0 
    2.8840    1.2286    0.5354 N   0  0  0  0  0  0  0  0  0  0  0  0 
    5.7422    4.7346    0.7989 O   0  0  0  0  0  0  0  0  0  0  0  0 
    0.9406   -1.4746   -0.2976 H   0  0  0  0  0  0  0  0  0  0  0  0 
    0.8340    0.1913   -0.9079 H   0  0  0  0  0  0  0  0  0  0  0  0 
    0.3827   -0.1824    0.7669 H   0  0  0  0  0  0  0  0  0  0  0  0 
    1.5877    2.0719    3.6563 H   0  0  0  0  0  0  0  0  0  0  0  0 
    3.2418    1.5182    3.3787 H   0  0  0  0  0  0  0  0  0  0  0  0 
    1.8801    0.4132    3.1177 H   0  0  0  0  0  0  0  0  0  0  0  0 
    4.5874    6.1620   -1.9849 H   0  0  0  0  0  0  0  0  0  0  0  0 
    6.2118    6.4055   -1.3067 H   0  0  0  0  0  0  0  0  0  0  0  0 
    4.7949    6.9896   -0.4264 H   0  0  0  0  0  0  0  0  0  0  0  0 
    3.1942   -0.5818   -0.4152 H   0  0  0  0  0  0  0  0  0  0  0  0 
    2.7684   -0.7842    1.2805 H   0  0  0  0  0  0  0  0  0  0  0  0 
    2.3940    2.9969    1.5071 H   0  0  0  0  0  0  0  0  0  0  0  0 
    1.0473    1.9113    1.2423 H   0  0  0  0  0  0  0  0  0  0  0  0 
    3.7619    3.4745   -1.4720 H   0  0  0  0  0  0  0  0  0  0  0  0 
    4.7344    1.0871    1.6508 H   0  0  0  0  0  0  0  0  0  0  0  0 
    4.8153    0.8027   -0.0871 H   0  0  0  0  0  0  0  0  0  0  0  0 
  1  4  1  0  0  0  0 
  1 15  1  0  0  0  0 
  2 18  1  0  0  0  0 
  2 17  1  0  0  0  0 
  2 16  1  0  0  0  0 
  3 21  1  0  0  0  0 
  3  8  1  0  0  0  0 
  4 11  1  0  0  0  0 
  4 23  1  0  0  0  0 
  5  2  1  0  0  0  0 
  6  8  2  0  0  0  0 
  6  9  1  0  0  0  0 
  7 27  1  0  0  0  0 
  8 12  1  0  0  0  0 
  9  7  1  0  0  0  0 
  9 10  2  0  0  0  0 
 11  7  1  0  0  0  0 
 11  5  1  0  0  0  0 
 12 10  1  0  0  0  0 
 13  1  1  0  0  0  0 
 14  1  1  0  0  0  0 
 19  3  1  0  0  0  0 
 20  3  1  0  0  0  0 
 22  4  1  0  0  0  0 
 24  5  1  0  0  0  0 
 25  5  1  0  0  0  0 
 26  6  1  0  0  0  0 
 28  7  1  0  0  0  0 
M  END 
>  <HBA> 
3 
 
>  <HBD> 
0 
 
>  <TPSA> 
29.27 
 
>  <cid> 
13778 
 
>  <dipole> 
2.64 
 
>  <excitation_energy_1> 
4.728 
 
>  <excitation_energy_2> 
5.201 
 
>  <excitation_energy_3> 
5.507 
 
>  <excitation_energy_4> 
5.623 
 
>  <homo_energy> 
-5.698 
 
>  <homo_lumo_gap> 
5.625 
 
>  <logP> 
1.825 
 
>  <lumo_energy> 
-0.073 
 
>  <melting_point> 
26.7 
 
>  <molecular_refractivity> 
48.56 
 
>  <oscillator_strength_1> 
0.0056 
 
>  <oscillator_strength_2> 
0.0072 
 
>  <oscillator_strength_3> 
0.0069 
 
>  <oscillator_strength_4> 
0.0072 
 
>  <open_babel_can_smiles> 
CCN(Cc1noc(c1)C)CC 
 
>  <mulliken_charges> 
28 
1   -0.457603 
2   -0.462943 
3   -0.527571 
4   -0.104454 
5   -0.139995 
6   -0.285208 
7   -0.193955 
8   0.418185 
9   0.309591 
10   -0.231698 
11   -0.389749 
12   -0.371335 
13   0.144993 
14   0.154798 
15   0.150581 
16   0.145108 
17   0.160187 
18   0.145724 
19   0.171941 
20   0.182596 
21   0.182394 
22   0.135432 
23   0.117338 
24   0.153486 
25   0.142707 
26   0.148299 
27   0.145953 
28   0.155197 
 
>  <lowdin_charges> 
28 
1   -0.45129 
2   -0.465717 
3   -0.441705 
4   -0.19858 
5   -0.20469 
6   -0.249915 
7   -0.198178 
8   0.094921 
9   0.012242 
10   -0.091693 
11   -0.191597 
12   -0.084258 
13   0.153162 
14   0.154802 
15   0.150557 
16   0.15629 
17   0.154129 
18   0.146574 
19   0.171509 
20   0.173575 
21   0.175341 
22   0.143815 
23   0.119575 
24   0.150003 
25   0.143793 
26   0.178276 
27   0.139775 
28   0.159285 
 
$$$$ 
 
