PCCDB-ID:  41365 
public computational chemistry database (PCCDB) project, http://pccdb.org 
 
 18 18  0  0  1  0  0  0  0  0999 V2000 
    0.1051    1.2633    0.3171 C   0  0  0  0  0  0  0  0  0  0  0  0 
   -0.9599    0.5955   -0.5934 C   0  0  0  0  0  0  0  0  0  0  0  0 
    1.5844   -0.5449    1.6025 C   0  0  0  0  0  0  0  0  0  0  0  0 
    0.8729   -0.0912    0.3384 C   0  0  1  0  0  0  0  0  0  0  0  0 
   -0.4562   -0.7828   -0.0646 C   0  0  2  0  0  0  0  0  0  0  0  0 
   -0.3600   -1.9856   -0.8763 N   0  0  0  0  0  0  0  0  0  0  0  0 
    2.3579   -2.2182    1.4304 S   0  0  0  0  0  0  0  0  0  0  0  0 
   -0.3049    1.5104    1.3031 H   0  0  0  0  0  0  0  0  0  0  0  0 
    0.6372    2.1370   -0.0697 H   0  0  0  0  0  0  0  0  0  0  0  0 
   -0.7140    0.7218   -1.6550 H   0  0  0  0  0  0  0  0  0  0  0  0 
   -2.0124    0.8562   -0.4408 H   0  0  0  0  0  0  0  0  0  0  0  0 
    0.8889   -0.5524    2.4494 H   0  0  0  0  0  0  0  0  0  0  0  0 
    2.4070    0.1322    1.8562 H   0  0  0  0  0  0  0  0  0  0  0  0 
    1.5696   -0.1281   -0.5100 H   0  0  0  0  0  0  0  0  0  0  0  0 
   -1.0123   -1.0447    0.8453 H   0  0  0  0  0  0  0  0  0  0  0  0 
    0.0734   -1.7716   -1.7739 H   0  0  0  0  0  0  0  0  0  0  0  0 
   -1.2854   -2.3614   -1.0788 H   0  0  0  0  0  0  0  0  0  0  0  0 
    1.3601   -2.7471    0.6840 H   0  0  0  0  0  0  0  0  0  0  0  0 
  1  4  1  0  0  0  0 
  1  8  1  0  0  0  0 
  2 11  1  0  0  0  0 
  2  5  1  0  0  0  0 
  2  1  1  0  0  0  0 
  3 13  1  0  0  0  0 
  3 12  1  0  0  0  0 
  4 14  1  6  0  0  0 
  4  3  1  0  0  0  0 
  5  4  1  0  0  0  0 
  5 15  1  1  0  0  0 
  6  5  1  0  0  0  0 
  7  3  1  0  0  0  0 
  9  1  1  0  0  0  0 
 10  2  1  0  0  0  0 
 16  6  1  0  0  0  0 
 17  6  1  0  0  0  0 
 18  7  1  0  0  0  0 
M  END 
>  <HBA> 
2 
 
>  <HBD> 
2 
 
>  <TPSA> 
64.82 
 
>  <cid> 
41365 
 
>  <dipole> 
3.5 
 
>  <excitation_energy_1> 
5.342 
 
>  <excitation_energy_2> 
5.471 
 
>  <excitation_energy_3> 
5.721 
 
>  <excitation_energy_4> 
5.87 
 
>  <homo_energy> 
-5.992 
 
>  <homo_lumo_gap> 
7.238 
 
>  <logP> 
1.354 
 
>  <lumo_energy> 
1.246 
 
>  <melting_point> 
71.19 
 
>  <molecular_refractivity> 
34.67 
 
>  <oscillator_strength_1> 
0.0041 
 
>  <oscillator_strength_2> 
0.0241 
 
>  <oscillator_strength_3> 
0.0306 
 
>  <oscillator_strength_4> 
0.0129 
 
>  <open_babel_can_smiles> 
N[C@@H]1CC[C@H]1CS 
 
>  <mulliken_charges> 
18 
1   -0.288813 
2   -0.291833 
3   -0.405411 
4   -0.083481 
5   0.027589 
6   -0.719093 
7   -0.130951 
8   0.13984 
9   0.142753 
10   0.130249 
11   0.136039 
12   0.164304 
13   0.173406 
14   0.137941 
15   0.133546 
16   0.297899 
17   0.30219 
18   0.133829 
 
>  <lowdin_charges> 
18 
1   -0.286392 
2   -0.301937 
3   -0.368044 
4   -0.141542 
5   -0.078842 
6   -0.539976 
7   -0.123263 
8   0.146299 
9   0.147864 
10   0.141082 
11   0.141859 
12   0.152724 
13   0.165719 
14   0.148748 
15   0.142591 
16   0.25502 
17   0.259366 
18   0.138724 
 
$$$$ 
 
