PCCDB-ID:  27054 
public computational chemistry database (PCCDB) project, http://pccdb.org 
 
 21 21  0  0  0  0  0  0  0  0999 V2000 
   -1.2746   -0.0379    0.0778 C   0  0  0  0  0  0  0  0  0  0  0  0 
   -0.6427   -1.2792    0.1711 C   0  0  0  0  0  0  0  0  0  0  0  0 
   -0.5175    1.1245   -0.0580 C   0  0  0  0  0  0  0  0  0  0  0  0 
    0.7447   -1.3409    0.1226 C   0  0  0  0  0  0  0  0  0  0  0  0 
    1.6109    2.4235   -0.2861 C   0  0  0  0  0  0  0  0  0  0  0  0 
    1.7235    2.8716   -1.7588 C   0  0  0  0  0  0  0  0  0  0  0  0 
    0.8867    1.1037   -0.1281 C   0  0  0  0  0  0  0  0  0  0  0  0 
    1.4863   -0.1682   -0.0446 C   0  0  0  0  0  0  0  0  0  0  0  0 
    2.9476   -0.3440   -0.1212 N   0  0  0  0  0  0  0  0  0  0  0  0 
    0.4565    3.0845   -2.3693 O   0  0  0  0  0  0  0  0  0  0  0  0 
    3.4313   -1.3325    0.4293 O   0  0  0  0  0  0  0  0  0  0  0  0 
    3.6060    0.4905   -0.7461 O   0  0  0  0  0  0  0  0  0  0  0  0 
   -2.3581    0.0284    0.1206 H   0  0  0  0  0  0  0  0  0  0  0  0 
   -1.2221   -2.1902    0.2851 H   0  0  0  0  0  0  0  0  0  0  0  0 
   -1.0155    2.0885   -0.1057 H   0  0  0  0  0  0  0  0  0  0  0  0 
    1.2732   -2.2826    0.2061 H   0  0  0  0  0  0  0  0  0  0  0  0 
    1.0415    3.1892    0.2529 H   0  0  0  0  0  0  0  0  0  0  0  0 
    2.6140    2.3827    0.1424 H   0  0  0  0  0  0  0  0  0  0  0  0 
    2.3279    2.1484   -2.3202 H   0  0  0  0  0  0  0  0  0  0  0  0 
    2.2358    3.8380   -1.7923 H   0  0  0  0  0  0  0  0  0  0  0  0 
    0.0574    2.2147   -2.5258 H   0  0  0  0  0  0  0  0  0  0  0  0 
  1 13  1  0  0  0  0 
  1  2  2  0  0  0  0 
  2 14  1  0  0  0  0 
  3  1  1  0  0  0  0 
  4  2  1  0  0  0  0 
  4 16  1  0  0  0  0 
  5  7  1  0  0  0  0 
  5 18  1  0  0  0  0 
  5 17  1  0  0  0  0 
  6  5  1  0  0  0  0 
  7  3  2  0  0  0  0 
  7  8  1  0  0  0  0 
  8  4  2  0  0  0  0 
  9  8  1  0  0  0  0 
  9 11  2  0  0  0  0 
 10  6  1  0  0  0  0 
 12  9  2  0  0  0  0 
 15  3  1  0  0  0  0 
 19  6  1  0  0  0  0 
 20  6  1  0  0  0  0 
 21 10  1  0  0  0  0 
M  END 
>  <HBA> 
1 
 
>  <HBD> 
1 
 
>  <TPSA> 
66.05 
 
>  <cid> 
27054 
 
>  <dipole> 
3.73 
 
>  <excitation_energy_1> 
3.666 
 
>  <excitation_energy_2> 
3.999 
 
>  <excitation_energy_3> 
4.292 
 
>  <excitation_energy_4> 
4.448 
 
>  <homo_energy> 
-7.162 
 
>  <homo_lumo_gap> 
4.724 
 
>  <logP> 
1.653 
 
>  <lumo_energy> 
-2.438 
 
>  <melting_point> 
64.9 
 
>  <molecular_refractivity> 
46.2 
 
>  <oscillator_strength_1> 
0.0183 
 
>  <oscillator_strength_2> 
0.0211 
 
>  <oscillator_strength_3> 
0.0052 
 
>  <oscillator_strength_4> 
0.0072 
 
>  <open_babel_can_smiles> 
OCCc1ccccc1N(=O)=O 
 
>  <mulliken_charges> 
21 
1   -0.103934 
2   -0.144594 
3   -0.214777 
4   -0.137323 
5   -0.335787 
6   -0.044681 
7   0.141302 
8   0.205502 
9   0.35654 
10   -0.615538 
11   -0.381594 
12   -0.390148 
13   0.149596 
14   0.150709 
15   0.159367 
16   0.182497 
17   0.15545 
18   0.167791 
19   0.153217 
20   0.154584 
21   0.391822 
 
>  <lowdin_charges> 
21 
1   -0.131189 
2   -0.1534 
3   -0.166884 
4   -0.137522 
5   -0.295995 
6   -0.132349 
7   0.011594 
8   -0.002667 
9   0.30861 
10   -0.468688 
11   -0.243084 
12   -0.24742 
13   0.165845 
14   0.169164 
15   0.171605 
16   0.186874 
17   0.159494 
18   0.168933 
19   0.143298 
20   0.152673 
21   0.341107 
 
$$$$ 
 
