PCCDB-ID:  36215 
public computational chemistry database (PCCDB) project, http://pccdb.org 
 
 31 31  0  0  0  0  0  0  0  0999 V2000 
    5.7502    3.3206    0.7668 C   0  0  0  0  0  0  0  0  0  0  0  0 
    6.0438    0.9728   -0.0436 C   0  0  0  0  0  0  0  0  0  0  0  0 
    5.3060    1.8864    0.6589 C   0  0  0  0  0  0  0  0  0  0  0  0 
    4.0570    1.4196    1.2468 C   0  0  0  0  0  0  0  0  0  0  0  0 
    3.2484    3.2741    2.5067 C   0  0  0  0  0  0  0  0  0  0  0  0 
    4.7415   -3.1589   -0.5964 C   0  0  0  0  0  0  0  0  0  0  0  0 
    4.6006   -0.7597    0.2408 C   0  0  0  0  0  0  0  0  0  0  0  0 
    3.9546    3.6243    3.5271 N   0  0  0  0  0  0  0  0  0  0  0  0 
    4.1064   -4.2476   -0.8458 N   0  0  0  0  0  0  0  0  0  0  0  0 
    2.4254    5.5447    2.3196 N   0  0  0  0  0  0  0  0  0  0  0  0 
    6.6725   -3.9717   -1.7624 N   0  0  0  0  0  0  0  0  0  0  0  0 
    5.7320   -0.3424   -0.2682 N   0  0  0  0  0  0  0  0  0  0  0  0 
    3.1376    1.9947    1.9469 N   0  0  0  0  0  0  0  0  0  0  0  0 
    3.7882    0.0632    0.9642 N   0  0  0  0  0  0  0  0  0  0  0  0 
    4.1494   -2.0502    0.0789 N   0  0  0  0  0  0  0  0  0  0  0  0 
    2.3712    4.1837    1.9441 N   0  0  0  0  0  0  0  0  0  0  0  0 
    6.0587   -3.0133   -0.9287 N   0  0  0  0  0  0  0  0  0  0  0  0 
    6.6769    3.4675    0.2036 H   0  0  0  0  0  0  0  0  0  0  0  0 
    5.9151    3.6292    1.8037 H   0  0  0  0  0  0  0  0  0  0  0  0 
    4.9965    4.0036    0.3556 H   0  0  0  0  0  0  0  0  0  0  0  0 
    6.9800    1.2890   -0.4985 H   0  0  0  0  0  0  0  0  0  0  0  0 
    4.4788    2.8193    3.8706 H   0  0  0  0  0  0  0  0  0  0  0  0 
    3.1407   -4.2206   -0.5202 H   0  0  0  0  0  0  0  0  0  0  0  0 
    3.3914    5.7389    2.5971 H   0  0  0  0  0  0  0  0  0  0  0  0 
    1.8919    5.6283    3.1860 H   0  0  0  0  0  0  0  0  0  0  0  0 
    5.9803   -4.2619   -2.4582 H   0  0  0  0  0  0  0  0  0  0  0  0 
    6.8254   -4.8039   -1.1914 H   0  0  0  0  0  0  0  0  0  0  0  0 
    2.9254   -0.2684    1.3827 H   0  0  0  0  0  0  0  0  0  0  0  0 
    3.2205   -2.2478    0.4241 H   0  0  0  0  0  0  0  0  0  0  0  0 
    2.1266    4.0392    0.9742 H   0  0  0  0  0  0  0  0  0  0  0  0 
    6.4314   -2.0711   -0.9848 H   0  0  0  0  0  0  0  0  0  0  0  0 
  1 19  1  0  0  0  0 
  2  3  1  0  0  0  0 
  3  1  1  0  0  0  0 
  3  4  2  0  0  0  0 
  4 13  1  0  0  0  0 
  5  8  1  0  0  0  0 
  6 15  1  0  0  0  0 
  7 14  1  0  0  0  0 
  8 22  1  0  0  0  0 
  9  6  2  0  0  0  0 
  9 23  1  0  0  0  0 
 10 24  1  0  0  0  0 
 10 25  1  0  0  0  0 
 11 27  1  0  0  0  0 
 11 17  1  0  0  0  0 
 12  2  1  0  0  0  0 
 12  7  2  0  0  0  0 
 13  5  2  0  0  0  0 
 14  4  1  0  0  0  0 
 14 28  1  0  0  0  0 
 15  7  1  0  0  0  0 
 15 29  1  0  0  0  0 
 16 10  1  0  0  0  0 
 16  5  1  0  0  0  0 
 17  6  1  0  0  0  0 
 18  1  1  0  0  0  0 
 20  1  1  0  0  0  0 
 21  2  1  0  0  0  0 
 26 11  1  0  0  0  0 
 30 16  1  0  0  0  0 
 31 17  1  0  0  0  0 
M  RAD  1   8   2 
M  END 
>  <HBA> 
10 
 
>  <HBD> 
6 
 
>  <TPSA> 
178.64 
 
>  <cid> 
36215 
 
>  <dipole> 
2.0 
 
>  <excitation_energy_1> 
3.995 
 
>  <excitation_energy_2> 
4.083 
 
>  <excitation_energy_3> 
4.526 
 
>  <excitation_energy_4> 
4.617 
 
>  <homo_energy> 
-5.976 
 
>  <homo_lumo_gap> 
4.659 
 
>  <logP> 
1.187 
 
>  <lumo_energy> 
-1.317 
 
>  <melting_point> 
362.0 
 
>  <molecular_refractivity> 
61.85 
 
>  <oscillator_strength_1> 
0.0308 
 
>  <oscillator_strength_2> 
0.2204 
 
>  <oscillator_strength_3> 
0.0136 
 
>  <oscillator_strength_4> 
0.0112 
 
>  <open_babel_can_smiles> 
NNC(=N)NC1=NCC(=C(N1)/N=C(\NN)/[NH])C 
 
>  <mulliken_charges> 
31 
1   -0.538122 
2   -0.01147 
3   0.114684 
4   0.490946 
5   0.525567 
6   0.662154 
7   0.851545 
8   -0.643319 
9   -0.664778 
10   -0.569401 
11   -0.558769 
12   -0.554491 
13   -0.571219 
14   -0.711139 
15   -0.741123 
16   -0.460003 
17   -0.506995 
18   0.157235 
19   0.190589 
20   0.166443 
21   0.154218 
22   0.27623 
23   0.270819 
24   0.319971 
25   0.321335 
26   0.32148 
27   0.324463 
28   0.343027 
29   0.333571 
30   0.325588 
31   0.380963 
 
>  <lowdin_charges> 
31 
1   -0.440931 
2   -0.074555 
3   -0.074159 
4   0.119006 
5   0.112348 
6   0.132036 
7   0.167534 
8   -0.487167 
9   -0.480018 
10   -0.460714 
11   -0.451172 
12   -0.233803 
13   -0.255081 
14   -0.208352 
15   -0.255787 
16   -0.24445 
17   -0.243733 
18   0.160533 
19   0.174063 
20   0.163937 
21   0.165769 
22   0.252356 
23   0.24928 
24   0.259331 
25   0.262915 
26   0.262522 
27   0.265823 
28   0.298873 
29   0.290849 
30   0.275852 
31   0.296895 
 
$$$$ 
 
