PCCDB-ID:  27291 
public computational chemistry database (PCCDB) project, http://pccdb.org 
 
 20 20  0  0  1  0  0  0  0  0999 V2000 
    3.1704    0.4830   -1.5322 C   0  0  0  0  0  0  0  0  0  0  0  0 
    2.7093    0.1562   -0.1085 C   0  0  0  0  0  0  0  0  0  0  0  0 
    3.2934   -1.1632    0.4408 C   0  0  0  0  0  0  0  0  0  0  0  0 
    6.9452   -1.6072    0.3812 C   0  0  0  0  0  0  0  0  0  0  0  0 
    6.8251   -0.3291    1.2535 C   0  0  0  0  0  0  0  0  0  0  0  0 
    4.7902   -1.1573    0.5861 C   0  0  3  0  0  0  0  0  0  0  0  0 
    5.5836   -1.8894   -0.1095 N   0  0  0  0  0  0  0  0  0  0  0  0 
    5.3893   -0.3570    1.5670 N   0  0  0  0  0  0  0  0  0  0  0  0 
    2.7320    1.4242   -1.8825 H   0  0  0  0  0  0  0  0  0  0  0  0 
    2.8728   -0.3081   -2.2303 H   0  0  0  0  0  0  0  0  0  0  0  0 
    4.2607    0.5733   -1.5910 H   0  0  0  0  0  0  0  0  0  0  0  0 
    1.6149    0.0803   -0.0841 H   0  0  0  0  0  0  0  0  0  0  0  0 
    2.9648    0.9873    0.5650 H   0  0  0  0  0  0  0  0  0  0  0  0 
    3.0359   -1.9904   -0.2275 H   0  0  0  0  0  0  0  0  0  0  0  0 
    2.8471   -1.3761    1.4215 H   0  0  0  0  0  0  0  0  0  0  0  0 
    7.2911   -2.4617    0.9797 H   0  0  0  0  0  0  0  0  0  0  0  0 
    7.6437   -1.4895   -0.4535 H   0  0  0  0  0  0  0  0  0  0  0  0 
    7.0981    0.5750    0.6875 H   0  0  0  0  0  0  0  0  0  0  0  0 
    7.4351   -0.3639    2.1614 H   0  0  0  0  0  0  0  0  0  0  0  0 
    4.9401    0.5223    1.7944 H   0  0  0  0  0  0  0  0  0  0  0  0 
  1  2  1  0  0  0  0 
  2 12  1  0  0  0  0 
  2  3  1  0  0  0  0 
  2 13  1  0  0  0  0 
  3  6  1  0  0  0  0 
  3 15  1  0  0  0  0 
  4 16  1  0  0  0  0 
  4  5  1  0  0  0  0 
  5  8  1  0  0  0  0 
  5 19  1  0  0  0  0 
  6  8  1  0  0  0  0 
  7  4  1  0  0  0  0 
  7  6  1  0  0  0  0 
  8 20  1  0  0  0  0 
  9  1  1  0  0  0  0 
 10  1  1  0  0  0  0 
 11  1  1  0  0  0  0 
 14  3  1  0  0  0  0 
 17  4  1  0  0  0  0 
 18  5  1  0  0  0  0 
M  RAD  2   6   2   7   2 
M  END 
>  <HBA> 
2 
 
>  <HBD> 
1 
 
>  <TPSA> 
24.39 
 
>  <cid> 
27291 
 
>  <dipole> 
2.65 
 
>  <excitation_energy_1> 
5.095 
 
>  <excitation_energy_2> 
5.674 
 
>  <excitation_energy_3> 
5.869 
 
>  <excitation_energy_4> 
6.018 
 
>  <homo_energy> 
-5.772 
 
>  <homo_lumo_gap> 
6.732 
 
>  <logP> 
0.553 
 
>  <lumo_energy> 
0.961 
 
>  <melting_point> 
41.06 
 
>  <molecular_refractivity> 
42.57 
 
>  <oscillator_strength_1> 
0.0048 
 
>  <oscillator_strength_2> 
0.0197 
 
>  <oscillator_strength_3> 
0.0244 
 
>  <oscillator_strength_4> 
0.0197 
 
>  <open_babel_can_smiles> 
CCC[C]1[N]CCN1 
 
>  <mulliken_charges> 
20 
1   -0.438426 
2   -0.263207 
3   -0.330953 
4   -0.159511 
5   -0.147613 
6   0.481978 
7   -0.466069 
8   -0.603715 
9   0.141305 
10   0.152254 
11   0.154427 
12   0.14287 
13   0.122204 
14   0.169454 
15   0.151844 
16   0.149295 
17   0.146159 
18   0.136186 
19   0.148789 
20   0.312729 
 
>  <lowdin_charges> 
20 
1   -0.445477 
2   -0.268986 
3   -0.283997 
4   -0.2113 
5   -0.211956 
6   0.085291 
7   -0.246626 
8   -0.324943 
9   0.149454 
10   0.153796 
11   0.151028 
12   0.1451 
13   0.133358 
14   0.168593 
15   0.157388 
16   0.146885 
17   0.149488 
18   0.133232 
19   0.149412 
20   0.270259 
 
$$$$ 
 
