PCCDB-ID:  70620 
public computational chemistry database (PCCDB) project, http://pccdb.org 
 
 18 17  0  0  0  0  0  0  0  0999 V2000 
    1.1409   -0.0814    0.0685 C   0  0  0  0  0  0  0  0  0  0  0  0 
    0.5937    1.2024    0.7102 C   0  0  0  0  0  0  0  0  0  0  0  0 
    2.6792   -0.1086   -0.0027 C   0  0  0  0  0  0  0  0  0  0  0  0 
   -0.9356    1.2510    0.7719 C   0  0  0  0  0  0  0  0  0  0  0  0 
    3.3209   -0.1717    1.3670 C   0  0  0  0  0  0  0  0  0  0  0  0 
   -1.5630    0.2991    1.7672 C   0  0  0  0  0  0  0  0  0  0  0  0 
    4.1934    0.5715    1.7586 O   0  0  0  0  0  0  0  0  0  0  0  0 
   -0.9486   -0.4319    2.5138 O   0  0  0  0  0  0  0  0  0  0  0  0 
    0.7400   -0.1838   -0.9486 H   0  0  0  0  0  0  0  0  0  0  0  0 
    0.7867   -0.9505    0.6356 H   0  0  0  0  0  0  0  0  0  0  0  0 
    0.9545    2.0715    0.1452 H   0  0  0  0  0  0  0  0  0  0  0  0 
    0.9909    1.3050    1.7276 H   0  0  0  0  0  0  0  0  0  0  0  0 
    3.0802    0.7616   -0.5342 H   0  0  0  0  0  0  0  0  0  0  0  0 
    2.9948   -1.0112   -0.5484 H   0  0  0  0  0  0  0  0  0  0  0  0 
   -1.3885    1.0482   -0.2118 H   0  0  0  0  0  0  0  0  0  0  0  0 
   -1.2893    2.2591    1.0406 H   0  0  0  0  0  0  0  0  0  0  0  0 
    2.9272   -0.9816    2.0246 H   0  0  0  0  0  0  0  0  0  0  0  0 
   -2.6767    0.3158    1.7868 H   0  0  0  0  0  0  0  0  0  0  0  0 
  1 10  1  0  0  0  0 
  1  2  1  0  0  0  0 
  2  4  1  0  0  0  0 
  2 12  1  0  0  0  0 
  3  1  1  0  0  0  0 
  3  5  1  0  0  0  0 
  4 16  1  0  0  0  0 
  4  6  1  0  0  0  0 
  5  7  2  0  0  0  0 
  5 17  1  0  0  0  0 
  6 18  1  0  0  0  0 
  6  8  2  0  0  0  0 
  9  1  1  0  0  0  0 
 11  2  1  0  0  0  0 
 13  3  1  0  0  0  0 
 14  3  1  0  0  0  0 
 15  4  1  0  0  0  0 
M  END 
>  <HBA> 
2 
 
>  <HBD> 
0 
 
>  <TPSA> 
34.14 
 
>  <cid> 
70620 
 
>  <dipole> 
4.11 
 
>  <excitation_energy_1> 
4.224 
 
>  <excitation_energy_2> 
4.324 
 
>  <excitation_energy_3> 
5.34 
 
>  <excitation_energy_4> 
5.827 
 
>  <homo_energy> 
-6.74 
 
>  <homo_lumo_gap> 
5.97 
 
>  <logP> 
0.945 
 
>  <lumo_energy> 
-0.77 
 
>  <melting_point> 
36.89 
 
>  <molecular_refractivity> 
31.36 
 
>  <oscillator_strength_1> 
0.0001 
 
>  <oscillator_strength_2> 
0.0002 
 
>  <oscillator_strength_3> 
0.0002 
 
>  <oscillator_strength_4> 
0.004 
 
>  <open_babel_can_smiles> 
O=CCCCCC=O 
 
>  <mulliken_charges> 
18 
1   -0.282623 
2   -0.253074 
3   -0.334376 
4   -0.353111 
5   0.257331 
6   0.255794 
7   -0.386094 
8   -0.382845 
9   0.1376 
10   0.165667 
11   0.141741 
12   0.163939 
13   0.160644 
14   0.160186 
15   0.161632 
16   0.169603 
17   0.108797 
18   0.109191 
 
>  <lowdin_charges> 
18 
1   -0.277046 
2   -0.275157 
3   -0.311003 
4   -0.314691 
5   0.053012 
6   0.061429 
7   -0.217519 
8   -0.221051 
9   0.144331 
10   0.156409 
11   0.149905 
12   0.156593 
13   0.1599 
14   0.16704 
15   0.163428 
16   0.170183 
17   0.118692 
18   0.115545 
 
$$$$ 
 
