PCCDB-ID:  50542 
public computational chemistry database (PCCDB) project, http://pccdb.org 
 
 21 20  0  0  0  0  0  0  0  0999 V2000 
    1.2777    0.3358    0.0238 C   0  0  0  0  0  0  0  0  0  0  0  0 
    2.5171   -1.8725   -0.0771 C   0  0  0  0  0  0  0  0  0  0  0  0 
    5.4060    1.2139   -0.3679 C   0  0  0  0  0  0  0  0  0  0  0  0 
    5.0388    1.1227   -2.8765 C   0  0  0  0  0  0  0  0  0  0  0  0 
    3.3550    0.1105   -1.3614 C   0  0  0  0  0  0  0  0  0  0  0  0 
    2.6584   -0.3380   -0.0994 C   0  0  0  0  0  0  0  0  0  0  0  0 
    4.5165    0.7672   -1.5035 C   0  0  0  0  0  0  0  0  0  0  0  0 
    1.3707    1.4269    0.0547 H   0  0  0  0  0  0  0  0  0  0  0  0 
    0.6396    0.0794   -0.8318 H   0  0  0  0  0  0  0  0  0  0  0  0 
    0.7608    0.0095    0.9346 H   0  0  0  0  0  0  0  0  0  0  0  0 
    2.0058   -2.2073    0.8339 H   0  0  0  0  0  0  0  0  0  0  0  0 
    3.4966   -2.3612   -0.1195 H   0  0  0  0  0  0  0  0  0  0  0  0 
    1.9315   -2.2242   -0.9364 H   0  0  0  0  0  0  0  0  0  0  0  0 
    5.5489    2.3034   -0.3937 H   0  0  0  0  0  0  0  0  0  0  0  0 
    6.4068    0.7695   -0.4624 H   0  0  0  0  0  0  0  0  0  0  0  0 
    5.0163    0.9520    0.6184 H   0  0  0  0  0  0  0  0  0  0  0  0 
    6.0303    0.6807   -3.0506 H   0  0  0  0  0  0  0  0  0  0  0  0 
    5.1618    2.2099   -2.9848 H   0  0  0  0  0  0  0  0  0  0  0  0 
    4.3697    0.7771   -3.6708 H   0  0  0  0  0  0  0  0  0  0  0  0 
    2.8158   -0.1510   -2.2758 H   0  0  0  0  0  0  0  0  0  0  0  0 
    3.2517   -0.0449    0.7750 H   0  0  0  0  0  0  0  0  0  0  0  0 
  1  8  1  0  0  0  0 
  1 10  1  0  0  0  0 
  2 11  1  0  0  0  0 
  3 16  1  0  0  0  0 
  4  7  1  0  0  0  0 
  5  6  1  0  0  0  0 
  6  2  1  0  0  0  0 
  6  1  1  0  0  0  0 
  6 21  1  0  0  0  0 
  7  5  2  0  0  0  0 
  7  3  1  0  0  0  0 
  9  1  1  0  0  0  0 
 12  2  1  0  0  0  0 
 13  2  1  0  0  0  0 
 14  3  1  0  0  0  0 
 15  3  1  0  0  0  0 
 17  4  1  0  0  0  0 
 18  4  1  0  0  0  0 
 19  4  1  0  0  0  0 
 20  5  1  0  0  0  0 
M  END 
>  <HBA> 
0 
 
>  <HBD> 
0 
 
>  <TPSA> 
0.0 
 
>  <cid> 
50542 
 
>  <dipole> 
0.3 
 
>  <excitation_energy_1> 
5.724 
 
>  <excitation_energy_2> 
6.189 
 
>  <excitation_energy_3> 
6.275 
 
>  <excitation_energy_4> 
6.293 
 
>  <homo_energy> 
-6.158 
 
>  <homo_lumo_gap> 
7.113 
 
>  <logP> 
2.609 
 
>  <lumo_energy> 
0.955 
 
>  <melting_point> 
-14.02 
 
>  <molecular_refractivity> 
35.29 
 
>  <oscillator_strength_1> 
0.0039 
 
>  <oscillator_strength_2> 
0.0022 
 
>  <oscillator_strength_3> 
0.0186 
 
>  <oscillator_strength_4> 
0.2457 
 
>  <open_babel_can_smiles> 
CC(C=C(C)C)C 
 
>  <mulliken_charges> 
21 
1   -0.437618 
2   -0.437574 
3   -0.512523 
4   -0.504894 
5   -0.151797 
6   -0.111265 
7   0.180322 
8   0.145897 
9   0.138483 
10   0.137912 
11   0.137899 
12   0.145899 
13   0.138468 
14   0.150702 
15   0.150719 
16   0.154575 
17   0.14755 
18   0.147755 
19   0.150371 
20   0.104068 
21   0.125053 
 
>  <lowdin_charges> 
21 
1   -0.441066 
2   -0.443113 
3   -0.441462 
4   -0.437495 
5   -0.188242 
6   -0.119959 
7   -0.013523 
8   0.148669 
9   0.14608 
10   0.14676 
11   0.146774 
12   0.150389 
13   0.146163 
14   0.152487 
15   0.153711 
16   0.154438 
17   0.150929 
18   0.149716 
19   0.154671 
20   0.143146 
21   0.140926 
 
$$$$ 
 
