PCCDB-ID:  11175 
public computational chemistry database (PCCDB) project, http://pccdb.org 
 
 11 11  0  0  0  0  0  0  0  0999 V2000 
   -0.3622    1.3418    0.0789 C   0  0  0  0  0  0  0  0  0  0  0  0 
    0.9574    0.5897    0.0561 C   0  0  0  0  0  0  0  0  0  0  0  0 
   -0.3038   -1.2401    0.2231 C   0  0  0  0  0  0  0  0  0  0  0  0 
   -0.6144   -2.4639    0.3091 N   0  0  0  0  0  0  0  0  0  0  0  0 
    0.9834   -0.6849    0.1274 N   0  0  0  0  0  0  0  0  0  0  0  0 
    2.1057    1.2788   -0.0387 O   0  0  0  0  0  0  0  0  0  0  0  0 
   -1.6155    0.0256    0.2152 S   0  0  0  0  0  0  0  0  0  0  0  0 
   -0.4883    1.9285   -0.8392 H   0  0  0  0  0  0  0  0  0  0  0  0 
   -0.4005    2.0283    0.9335 H   0  0  0  0  0  0  0  0  0  0  0  0 
    0.2377   -3.0318    0.2994 H   0  0  0  0  0  0  0  0  0  0  0  0 
    1.9189    2.2302   -0.0850 H   0  0  0  0  0  0  0  0  0  0  0  0 
  1  7  1  0  0  0  0 
  1  9  1  0  0  0  0 
  2  1  1  0  0  0  0 
  2  5  2  0  0  0  0 
  3  4  1  0  0  0  0 
  5  3  2  0  0  0  0 
  6  2  1  0  0  0  0 
  7  3  1  0  0  0  0 
  8  1  1  0  0  0  0 
 10  4  1  0  0  0  0 
 11  6  1  0  0  0  0 
M  RAD  1   4   2 
M  END 
>  <HBA> 
4 
 
>  <HBD> 
1 
 
>  <TPSA> 
80.75 
 
>  <cid> 
11175 
 
>  <dipole> 
5.37 
 
>  <excitation_energy_1> 
4.683 
 
>  <excitation_energy_2> 
4.797 
 
>  <excitation_energy_3> 
5.24 
 
>  <excitation_energy_4> 
5.583 
 
>  <homo_energy> 
-6.544 
 
>  <homo_lumo_gap> 
5.508 
 
>  <logP> 
-0.29 
 
>  <lumo_energy> 
-1.037 
 
>  <melting_point> 
100.48 
 
>  <molecular_refractivity> 
31.93 
 
>  <oscillator_strength_1> 
0.0488 
 
>  <oscillator_strength_2> 
0.0 
 
>  <oscillator_strength_3> 
0.0044 
 
>  <oscillator_strength_4> 
0.0 
 
>  <open_babel_can_smiles> 
OC1=[N]=C(SC1)[NH] 
 
>  <mulliken_charges> 
11 
1   -0.541089 
2   0.526244 
3   0.270245 
4   -0.598096 
5   -0.415593 
6   -0.560698 
7   0.176536 
8   0.206209 
9   0.206282 
10   0.306131 
11   0.423829 
 
>  <lowdin_charges> 
11 
1   -0.419419 
2   0.142875 
3   -0.015577 
4   -0.371496 
5   -0.181914 
6   -0.316636 
7   0.161804 
8   0.180804 
9   0.181115 
10   0.270397 
11   0.368045 
 
$$$$ 
 
