PCCDB-ID:  12235 
public computational chemistry database (PCCDB) project, http://pccdb.org 
 
 24 23  0  0  0  0  0  0  0  0999 V2000 
    1.1226    0.1496    0.1624 C   0  0  0  0  0  0  0  0  0  0  0  0 
    3.0326   -0.8030    1.5052 C   0  0  0  0  0  0  0  0  0  0  0  0 
    5.1237   -0.7234   -2.6878 C   0  0  0  0  0  0  0  0  0  0  0  0 
    5.3756    1.0251   -0.8887 C   0  0  0  0  0  0  0  0  0  0  0  0 
    3.2602   -0.4174   -1.0329 C   0  0  0  0  0  0  0  0  0  0  0  0 
    2.6528    0.0710    0.3001 C   0  0  0  0  0  0  0  0  0  0  0  0 
    4.7897   -0.3535   -1.2320 C   0  0  0  0  0  0  0  0  0  0  0  0 
    5.3594   -1.3507   -0.3625 O   0  0  0  0  0  0  0  0  0  0  0  0 
    0.6626    0.5193    1.0865 H   0  0  0  0  0  0  0  0  0  0  0  0 
    0.6968   -0.8409   -0.0456 H   0  0  0  0  0  0  0  0  0  0  0  0 
    0.8228    0.8187   -0.6535 H   0  0  0  0  0  0  0  0  0  0  0  0 
    2.5662   -0.4186    2.4210 H   0  0  0  0  0  0  0  0  0  0  0  0 
    4.1137   -0.8461    1.6509 H   0  0  0  0  0  0  0  0  0  0  0  0 
    2.6821   -1.8330    1.3594 H   0  0  0  0  0  0  0  0  0  0  0  0 
    4.7197    0.0094   -3.3958 H   0  0  0  0  0  0  0  0  0  0  0  0 
    4.7131   -1.7083   -2.9337 H   0  0  0  0  0  0  0  0  0  0  0  0 
    6.2114   -0.7617   -2.8351 H   0  0  0  0  0  0  0  0  0  0  0  0 
    4.9053    1.8200   -1.4795 H   0  0  0  0  0  0  0  0  0  0  0  0 
    6.4521    1.0472   -1.1047 H   0  0  0  0  0  0  0  0  0  0  0  0 
    5.2412    1.2565    0.1718 H   0  0  0  0  0  0  0  0  0  0  0  0 
    2.8109    0.1703   -1.8455 H   0  0  0  0  0  0  0  0  0  0  0  0 
    2.9553   -1.4600   -1.2013 H   0  0  0  0  0  0  0  0  0  0  0  0 
    3.0136    1.0923    0.4897 H   0  0  0  0  0  0  0  0  0  0  0  0 
    6.3215   -1.3268   -0.4902 H   0  0  0  0  0  0  0  0  0  0  0  0 
  1  6  1  0  0  0  0 
  1  9  1  0  0  0  0 
  2 13  1  0  0  0  0 
  2 12  1  0  0  0  0 
  3  7  1  0  0  0  0 
  4 20  1  0  0  0  0 
  5  6  1  0  0  0  0 
  6 23  1  0  0  0  0 
  6  2  1  0  0  0  0 
  7  5  1  0  0  0  0 
  7  4  1  0  0  0  0 
  7  8  1  0  0  0  0 
 10  1  1  0  0  0  0 
 11  1  1  0  0  0  0 
 14  2  1  0  0  0  0 
 15  3  1  0  0  0  0 
 16  3  1  0  0  0  0 
 17  3  1  0  0  0  0 
 18  4  1  0  0  0  0 
 19  4  1  0  0  0  0 
 21  5  1  0  0  0  0 
 22  5  1  0  0  0  0 
 24  8  1  0  0  0  0 
M  END 
>  <HBA> 
1 
 
>  <HBD> 
1 
 
>  <TPSA> 
20.23 
 
>  <cid> 
12235 
 
>  <dipole> 
1.64 
 
>  <excitation_energy_1> 
6.38 
 
>  <excitation_energy_2> 
7.182 
 
>  <excitation_energy_3> 
7.393 
 
>  <excitation_energy_4> 
7.46 
 
>  <homo_energy> 
-7.051 
 
>  <homo_lumo_gap> 
8.762 
 
>  <logP> 
1.803 
 
>  <lumo_energy> 
1.712 
 
>  <melting_point> 
2.41 
 
>  <molecular_refractivity> 
36.96 
 
>  <oscillator_strength_1> 
0.0227 
 
>  <oscillator_strength_2> 
0.0065 
 
>  <oscillator_strength_3> 
0.0036 
 
>  <oscillator_strength_4> 
0.0016 
 
>  <open_babel_can_smiles> 
CC(CC(O)(C)C)C 
 
>  <mulliken_charges> 
24 
1   -0.442281 
2   -0.435645 
3   -0.452569 
4   -0.463205 
5   -0.249076 
6   -0.07826 
7   0.304296 
8   -0.631769 
9   0.138724 
10   0.138607 
11   0.134327 
12   0.125461 
13   0.165816 
14   0.134926 
15   0.140135 
16   0.154322 
17   0.126152 
18   0.142182 
19   0.127751 
20   0.161289 
21   0.121857 
22   0.13581 
23   0.119565 
24   0.381583 
 
>  <lowdin_charges> 
24 
1   -0.444884 
2   -0.446741 
3   -0.455118 
4   -0.458356 
5   -0.279086 
6   -0.119275 
7   0.124407 
8   -0.458636 
9   0.147611 
10   0.144656 
11   0.144642 
12   0.14069 
13   0.157941 
14   0.144144 
15   0.151575 
16   0.155655 
17   0.140163 
18   0.153492 
19   0.141672 
20   0.156293 
21   0.143842 
22   0.14683 
23   0.133378 
24   0.335104 
 
$$$$ 
 
