PCCDB-ID:  61153 
public computational chemistry database (PCCDB) project, http://pccdb.org 
 
 20 20  0  0  0  0  0  0  0  0999 V2000 
    0.6522   -0.3888    0.3735 C   0  0  0  0  0  0  0  0  0  0  0  0 
    5.1473   -0.4413   -2.7217 C   0  0  0  0  0  0  0  0  0  0  0  0 
    1.8884   -0.4724   -0.1352 C   0  0  0  0  0  0  0  0  0  0  0  0 
    3.1198   -4.0605    0.1437 C   0  0  0  0  0  0  0  0  0  0  0  0 
    4.1992   -4.0392   -0.7375 C   0  0  0  0  0  0  0  0  0  0  0  0 
    2.3739   -2.8999    0.3403 C   0  0  0  0  0  0  0  0  0  0  0  0 
    4.5323   -2.8645   -1.4147 C   0  0  0  0  0  0  0  0  0  0  0  0 
    2.6691   -1.7049   -0.3306 C   0  0  0  0  0  0  0  0  0  0  0  0 
    3.7769   -1.7043   -1.2151 C   0  0  0  0  0  0  0  0  0  0  0  0 
    4.0360   -0.5180   -1.8450 O   0  0  0  0  0  0  0  0  0  0  0  0 
    0.1637    0.5733    0.4956 H   0  0  0  0  0  0  0  0  0  0  0  0 
    0.0782   -1.2614    0.6751 H   0  0  0  0  0  0  0  0  0  0  0  0 
    5.1685    0.5871   -3.0871 H   0  0  0  0  0  0  0  0  0  0  0  0 
    5.0378   -1.1255   -3.5734 H   0  0  0  0  0  0  0  0  0  0  0  0 
    6.0892   -0.6611   -2.2019 H   0  0  0  0  0  0  0  0  0  0  0  0 
    2.3814    0.4415   -0.4550 H   0  0  0  0  0  0  0  0  0  0  0  0 
    2.8652   -4.9691    0.6815 H   0  0  0  0  0  0  0  0  0  0  0  0 
    4.7941   -4.9340   -0.9001 H   0  0  0  0  0  0  0  0  0  0  0  0 
    1.5495   -2.9088    1.0474 H   0  0  0  0  0  0  0  0  0  0  0  0 
    5.3754   -2.8625   -2.0955 H   0  0  0  0  0  0  0  0  0  0  0  0 
  1 11  1  0  0  0  0 
  1 12  1  0  0  0  0 
  2 15  1  0  0  0  0 
  2 10  1  0  0  0  0 
  3  1  2  0  0  0  0 
  4  6  1  0  0  0  0 
  4 17  1  0  0  0  0 
  5  4  2  0  0  0  0 
  6 19  1  0  0  0  0 
  7  9  2  0  0  0  0 
  7  5  1  0  0  0  0 
  8  3  1  0  0  0  0 
  8  6  2  0  0  0  0 
  9  8  1  0  0  0  0 
 10  9  1  0  0  0  0 
 13  2  1  0  0  0  0 
 14  2  1  0  0  0  0 
 16  3  1  0  0  0  0 
 18  5  1  0  0  0  0 
 20  7  1  0  0  0  0 
M  END 
>  <HBA> 
1 
 
>  <HBD> 
0 
 
>  <TPSA> 
9.23 
 
>  <cid> 
61153 
 
>  <dipole> 
1.66 
 
>  <excitation_energy_1> 
4.343 
 
>  <excitation_energy_2> 
4.944 
 
>  <excitation_energy_3> 
5.316 
 
>  <excitation_energy_4> 
5.571 
 
>  <homo_energy> 
-5.625 
 
>  <homo_lumo_gap> 
4.955 
 
>  <logP> 
2.338 
 
>  <lumo_energy> 
-0.669 
 
>  <melting_point> 
2.56 
 
>  <molecular_refractivity> 
43.02 
 
>  <oscillator_strength_1> 
0.1851 
 
>  <oscillator_strength_2> 
0.1925 
 
>  <oscillator_strength_3> 
0.0002 
 
>  <oscillator_strength_4> 
0.1628 
 
>  <open_babel_can_smiles> 
C=Cc1ccccc1OC 
 
>  <mulliken_charges> 
20 
1   -0.34748 
2   -0.214089 
3   -0.102522 
4   -0.12915 
5   -0.138309 
6   -0.196214 
7   -0.194045 
8   0.099163 
9   0.315882 
10   -0.508112 
11   0.140318 
12   0.137594 
13   0.169942 
14   0.153311 
15   0.15286 
16   0.146971 
17   0.125561 
18   0.128887 
19   0.128571 
20   0.130862 
 
>  <lowdin_charges> 
20 
1   -0.33694 
2   -0.276272 
3   -0.144889 
4   -0.176904 
5   -0.148222 
6   -0.145658 
7   -0.213243 
8   -0.030673 
9   0.099275 
10   -0.198816 
11   0.160526 
12   0.154936 
13   0.161919 
14   0.146178 
15   0.1456 
16   0.166202 
17   0.157374 
18   0.158064 
19   0.159354 
20   0.162187 
 
$$$$ 
 
