PCCDB-ID:  11112 
public computational chemistry database (PCCDB) project, http://pccdb.org 
 
 17 17  0  0  0  0  0  0  0  0999 V2000 
   -0.9173    1.1974    0.0998 C   0  0  0  0  0  0  0  0  0  0  0  0 
   -1.4036   -0.0991   -0.0284 C   0  0  0  0  0  0  0  0  0  0  0  0 
    0.4652    1.3878    0.1524 C   0  0  0  0  0  0  0  0  0  0  0  0 
    0.8741   -0.8568   -0.0325 C   0  0  0  0  0  0  0  0  0  0  0  0 
   -0.4969   -1.1707   -0.0896 C   0  0  0  0  0  0  0  0  0  0  0  0 
   -0.9913   -2.5620   -0.2549 C   0  0  0  0  0  0  0  0  0  0  0  0 
    0.5538   -3.6147    1.1009 N   0  0  0  0  0  0  0  0  0  0  0  0 
    1.3515    0.3870    0.0826 N   0  0  0  0  0  0  0  0  0  0  0  0 
   -0.5468   -3.6448    0.2559 N   0  0  0  0  0  0  0  0  0  0  0  0 
   -2.1380   -2.6978   -1.0105 O   0  0  0  0  0  0  0  0  0  0  0  0 
   -1.5923    2.0462    0.1578 H   0  0  0  0  0  0  0  0  0  0  0  0 
   -2.4715   -0.2938   -0.0694 H   0  0  0  0  0  0  0  0  0  0  0  0 
    0.8813    2.3888    0.2516 H   0  0  0  0  0  0  0  0  0  0  0  0 
    1.6146   -1.6500   -0.0975 H   0  0  0  0  0  0  0  0  0  0  0  0 
    0.6023   -2.7810    1.6915 H   0  0  0  0  0  0  0  0  0  0  0  0 
    0.5039   -4.4396    1.6903 H   0  0  0  0  0  0  0  0  0  0  0  0 
   -2.1058   -2.0471   -1.7301 H   0  0  0  0  0  0  0  0  0  0  0  0 
  1  3  1  0  0  0  0 
  1 11  1  0  0  0  0 
  2  1  2  0  0  0  0 
  3 13  1  0  0  0  0 
  4  8  1  0  0  0  0 
  5  4  2  0  0  0  0 
  5  2  1  0  0  0  0 
  6  5  1  0  0  0  0 
  6  9  2  0  0  0  0 
  7 16  1  0  0  0  0 
  7 15  1  0  0  0  0 
  8  3  2  0  0  0  0 
  9  7  1  0  0  0  0 
 10  6  1  0  0  0  0 
 12  2  1  0  0  0  0 
 14  4  1  0  0  0  0 
 17 10  1  0  0  0  0 
M  END 
>  <HBA> 
4 
 
>  <HBD> 
2 
 
>  <TPSA> 
68.01 
 
>  <cid> 
11112 
 
>  <dipole> 
2.98 
 
>  <excitation_energy_1> 
3.834 
 
>  <excitation_energy_2> 
4.053 
 
>  <excitation_energy_3> 
4.571 
 
>  <excitation_energy_4> 
4.878 
 
>  <homo_energy> 
-5.791 
 
>  <homo_lumo_gap> 
4.455 
 
>  <logP> 
0.776 
 
>  <lumo_energy> 
-1.336 
 
>  <melting_point> 
135.81 
 
>  <molecular_refractivity> 
35.13 
 
>  <oscillator_strength_1> 
0.0996 
 
>  <oscillator_strength_2> 
0.0164 
 
>  <oscillator_strength_3> 
0.0009 
 
>  <oscillator_strength_4> 
0.0021 
 
>  <open_babel_can_smiles> 
N/N=C(\c1cccnc1)/O 
 
>  <mulliken_charges> 
17 
1   -0.140536 
2   -0.149184 
3   0.043253 
4   -0.003836 
5   0.02294 
6   0.414829 
7   -0.571872 
8   -0.406868 
9   -0.299323 
10   -0.596377 
11   0.146389 
12   0.161309 
13   0.150447 
14   0.186239 
15   0.305904 
16   0.334654 
17   0.402033 
 
>  <lowdin_charges> 
17 
1   -0.173139 
2   -0.132847 
3   -0.081068 
4   -0.092938 
5   -0.066637 
6   0.077361 
7   -0.442063 
8   -0.142949 
9   -0.120321 
10   -0.384043 
11   0.169158 
12   0.169724 
13   0.16026 
14   0.177036 
15   0.252712 
16   0.275058 
17   0.354695 
 
$$$$ 
 
