PCCDB-ID:  41167 
public computational chemistry database (PCCDB) project, http://pccdb.org 
 
 22 21  0  0  0  0  0  0  0  0999 V2000 
    4.1615    2.1394   -0.5134 C   0  0  0  0  0  0  0  0  0  0  0  0 
    3.4899   -5.6084    1.4556 C   0  0  0  0  0  0  0  0  0  0  0  0 
    3.5966    1.1012    0.1035 C   0  0  0  0  0  0  0  0  0  0  0  0 
    3.4114   -4.2838    1.3373 C   0  0  0  0  0  0  0  0  0  0  0  0 
    3.2629   -0.2115   -0.5513 C   0  0  0  0  0  0  0  0  0  0  0  0 
    2.8092   -3.5826    0.1445 C   0  0  0  0  0  0  0  0  0  0  0  0 
    4.1013   -1.3684    0.0336 C   0  0  0  0  0  0  0  0  0  0  0  0 
    4.2294   -3.0935   -1.6975 N   0  0  0  0  0  0  0  0  0  0  0  0 
    3.7354   -2.6689   -0.5259 N   0  0  0  0  0  0  0  0  0  0  0  0 
    4.9943   -2.3074   -2.2527 O   0  0  0  0  0  0  0  0  0  0  0  0 
    4.3888    3.0632    0.0120 H   0  0  0  0  0  0  0  0  0  0  0  0 
    4.4146    2.1061   -1.5711 H   0  0  0  0  0  0  0  0  0  0  0  0 
    3.9172   -6.0790    2.3368 H   0  0  0  0  0  0  0  0  0  0  0  0 
    3.1294   -6.2750    0.6751 H   0  0  0  0  0  0  0  0  0  0  0  0 
    3.3609    1.1795    1.1668 H   0  0  0  0  0  0  0  0  0  0  0  0 
    3.7852   -3.6477    2.1396 H   0  0  0  0  0  0  0  0  0  0  0  0 
    3.4464   -0.1612   -1.6288 H   0  0  0  0  0  0  0  0  0  0  0  0 
    2.1970   -0.4417   -0.4080 H   0  0  0  0  0  0  0  0  0  0  0  0 
    1.9213   -3.0072    0.4430 H   0  0  0  0  0  0  0  0  0  0  0  0 
    2.5003   -4.3109   -0.6098 H   0  0  0  0  0  0  0  0  0  0  0  0 
    3.9765   -1.4267    1.1197 H   0  0  0  0  0  0  0  0  0  0  0  0 
    5.1588   -1.2027   -0.1876 H   0  0  0  0  0  0  0  0  0  0  0  0 
  1 11  1  0  0  0  0 
  1  3  2  0  0  0  0 
  2 13  1  0  0  0  0 
  3 15  1  0  0  0  0 
  4  2  2  0  0  0  0 
  4 16  1  0  0  0  0 
  5 18  1  0  0  0  0 
  5  7  1  0  0  0  0 
  5  3  1  0  0  0  0 
  6 19  1  0  0  0  0 
  6  4  1  0  0  0  0 
  7 21  1  0  0  0  0 
  8  9  1  0  0  0  0 
  9  7  1  0  0  0  0 
  9  6  1  0  0  0  0 
 10  8  1  0  0  0  0 
 12  1  1  0  0  0  0 
 14  2  1  0  0  0  0 
 17  5  1  0  0  0  0 
 20  6  1  0  0  0  0 
 22  7  1  0  0  0  0 
M  RAD  2   8   2  10   2 
M  END 
>  <HBA> 
3 
 
>  <HBD> 
0 
 
>  <TPSA> 
32.67 
 
>  <cid> 
41167 
 
>  <dipole> 
3.94 
 
>  <excitation_energy_1> 
3.37 
 
>  <excitation_energy_2> 
5.207 
 
>  <excitation_energy_3> 
5.383 
 
>  <excitation_energy_4> 
5.509 
 
>  <homo_energy> 
-6.006 
 
>  <homo_lumo_gap> 
5.197 
 
>  <logP> 
1.732 
 
>  <lumo_energy> 
-0.808 
 
>  <melting_point> 
-46.74 
 
>  <molecular_refractivity> 
42.45 
 
>  <oscillator_strength_1> 
0.001 
 
>  <oscillator_strength_2> 
0.0041 
 
>  <oscillator_strength_3> 
0.0362 
 
>  <oscillator_strength_4> 
0.023 
 
>  <open_babel_can_smiles> 
C=CCCN(CC=C)[N][O] 
 
>  <mulliken_charges> 
22 
1   -0.333036 
2   -0.327487 
3   -0.051477 
4   -0.043079 
5   -0.309135 
6   -0.196571 
7   -0.150394 
8   0.152165 
9   -0.212538 
10   -0.385033 
11   0.142239 
12   0.146796 
13   0.150882 
14   0.149876 
15   0.123876 
16   0.136772 
17   0.175994 
18   0.143887 
19   0.162751 
20   0.182597 
21   0.149121 
22   0.191794 
 
>  <lowdin_charges> 
22 
1   -0.329553 
2   -0.319406 
3   -0.148855 
4   -0.162234 
5   -0.274411 
6   -0.199291 
7   -0.211502 
8   0.054057 
9   -0.041424 
10   -0.276927 
11   0.160172 
12   0.1583 
13   0.165217 
14   0.162414 
15   0.146093 
16   0.155061 
17   0.163532 
18   0.147312 
19   0.155794 
20   0.173471 
21   0.149708 
22   0.172472 
 
$$$$ 
 
