PCCDB-ID:  54280 
public computational chemistry database (PCCDB) project, http://pccdb.org 
 
 30 31  0  0  0  0  0  0  0  0999 V2000 
    0.7645   -0.4087   -0.1474 C   0  0  0  0  0  0  0  0  0  0  0  0 
    6.9718   -2.0932    0.2087 C   0  0  0  0  0  0  0  0  0  0  0  0 
    6.1335   -3.2192    0.0331 C   0  0  0  0  0  0  0  0  0  0  0  0 
    6.4341   -0.8266    0.2940 C   0  0  0  0  0  0  0  0  0  0  0  0 
    4.7687   -3.0598   -0.0576 C   0  0  0  0  0  0  0  0  0  0  0  0 
    3.0298    0.7034    0.1450 C   0  0  0  0  0  0  0  0  0  0  0  0 
    5.1928    1.9311    0.4373 C   0  0  0  0  0  0  0  0  0  0  0  0 
    2.2667   -0.4879   -0.0278 C   0  0  0  0  0  0  0  0  0  0  0  0 
    4.3995    0.6550    0.2620 C   0  0  0  0  0  0  0  0  0  0  0  0 
    5.0309   -0.6291    0.2023 C   0  0  0  0  0  0  0  0  0  0  0  0 
    4.1845   -1.7688    0.0212 C   0  0  0  0  0  0  0  0  0  0  0  0 
    6.7084    3.0143    2.0322 C   0  0  0  0  0  0  0  0  0  0  0  0 
    7.1063    3.7962    1.0958 N   0  0  0  0  0  0  0  0  0  0  0  0 
    7.0534    3.0591    3.3933 N   0  0  0  0  0  0  0  0  0  0  0  0 
    5.8077    1.9887    1.7633 N   0  0  0  0  0  0  0  0  0  0  0  0 
    2.8234   -1.6816   -0.0859 N   0  0  0  0  0  0  0  0  0  0  0  0 
    0.4663    0.2432   -0.9781 H   0  0  0  0  0  0  0  0  0  0  0  0 
    0.3156    0.0069    0.7640 H   0  0  0  0  0  0  0  0  0  0  0  0 
    0.3551   -1.4068   -0.3162 H   0  0  0  0  0  0  0  0  0  0  0  0 
    8.0478   -2.2293    0.2765 H   0  0  0  0  0  0  0  0  0  0  0  0 
    6.5716   -4.2117   -0.0305 H   0  0  0  0  0  0  0  0  0  0  0  0 
    7.0821    0.0299    0.4445 H   0  0  0  0  0  0  0  0  0  0  0  0 
    4.0999   -3.9038   -0.1946 H   0  0  0  0  0  0  0  0  0  0  0  0 
    2.5152    1.6612    0.1778 H   0  0  0  0  0  0  0  0  0  0  0  0 
    4.5434    2.7993    0.2559 H   0  0  0  0  0  0  0  0  0  0  0  0 
    6.0020    1.9991   -0.2954 H   0  0  0  0  0  0  0  0  0  0  0  0 
    7.8452    4.4187    1.4270 H   0  0  0  0  0  0  0  0  0  0  0  0 
    7.8419    3.6635    3.5907 H   0  0  0  0  0  0  0  0  0  0  0  0 
    7.1767    2.1450    3.8174 H   0  0  0  0  0  0  0  0  0  0  0  0 
    5.1611    1.8041    2.5225 H   0  0  0  0  0  0  0  0  0  0  0  0 
  1  8  1  0  0  0  0 
  1 18  1  0  0  0  0 
  2 20  1  0  0  0  0 
  2  4  1  0  0  0  0 
  3  2  2  0  0  0  0 
  4 22  1  0  0  0  0 
  5 11  2  0  0  0  0 
  5  3  1  0  0  0  0 
  6 24  1  0  0  0  0 
  6  9  2  0  0  0  0 
  7 15  1  0  0  0  0 
  8  6  1  0  0  0  0 
  9  7  1  0  0  0  0 
 10  9  1  0  0  0  0 
 10  4  2  0  0  0  0 
 11 10  1  0  0  0  0 
 12 14  2  0  0  0  0 
 13 27  1  0  0  0  0 
 13 12  1  0  0  0  0 
 14 28  1  0  0  0  0 
 14 29  1  0  0  0  0 
 15 12  1  0  0  0  0 
 15 30  1  0  0  0  0 
 16  8  2  0  0  0  0 
 16 11  1  0  0  0  0 
 17  1  1  0  0  0  0 
 19  1  1  0  0  0  0 
 21  3  1  0  0  0  0 
 23  5  1  0  0  0  0 
 25  7  1  0  0  0  0 
 26  7  1  0  0  0  0 
M  RAD  1  13   2 
M  END 
>  <HBA> 
4 
 
>  <HBD> 
2 
 
>  <TPSA> 
77.29 
 
>  <cid> 
54280 
 
>  <dipole> 
3.18 
 
>  <excitation_energy_1> 
4.297 
 
>  <excitation_energy_2> 
4.336 
 
>  <excitation_energy_3> 
4.369 
 
>  <excitation_energy_4> 
4.533 
 
>  <homo_energy> 
-6.101 
 
>  <homo_lumo_gap> 
4.857 
 
>  <logP> 
2.717 
 
>  <lumo_energy> 
-1.244 
 
>  <melting_point> 
198.53 
 
>  <molecular_refractivity> 
65.58 
 
>  <oscillator_strength_1> 
0.0233 
 
>  <oscillator_strength_2> 
0.0257 
 
>  <oscillator_strength_3> 
0.0264 
 
>  <oscillator_strength_4> 
0.0158 
 
>  <open_babel_can_smiles> 
[NH]C(=[NH2])NCc1cc(C)nc2c1cccc2 
 
>  <mulliken_charges> 
30 
1   -0.523657 
2   -0.136444 
3   -0.134585 
4   -0.194313 
5   -0.148739 
6   -0.249829 
7   -0.194834 
8   0.32385 
9   0.125644 
10   0.105461 
11   0.234312 
12   0.589785 
13   -0.646077 
14   -0.756781 
15   -0.599528 
16   -0.553127 
17   0.160532 
18   0.159629 
19   0.17725 
20   0.129718 
21   0.131479 
22   0.151065 
23   0.140622 
24   0.128069 
25   0.155802 
26   0.191295 
27   0.26661 
28   0.320366 
29   0.324668 
30   0.321756 
 
>  <lowdin_charges> 
30 
1   -0.450058 
2   -0.156863 
3   -0.153622 
4   -0.157904 
5   -0.155137 
6   -0.197405 
7   -0.188769 
8   0.057575 
9   0.009414 
10   -0.022477 
11   0.041511 
12   0.124707 
13   -0.478308 
14   -0.512219 
15   -0.312072 
16   -0.162603 
17   0.162302 
18   0.161708 
19   0.170689 
20   0.156271 
21   0.158952 
22   0.169512 
23   0.168795 
24   0.159401 
25   0.148921 
26   0.176074 
27   0.248987 
28   0.276773 
29   0.278771 
30   0.277075 
 
$$$$ 
 
