PCCDB-ID:  67144 
public computational chemistry database (PCCDB) project, http://pccdb.org 
 
 24 24  0  0  0  0  0  0  0  0999 V2000 
    3.5711   -1.5086    0.8293 C   0  0  0  0  0  0  0  0  0  0  0  0 
    0.0368    6.6445    2.2233 C   0  0  0  0  0  0  0  0  0  0  0  0 
    2.5966   -0.4575    1.3572 C   0  0  0  0  0  0  0  0  0  0  0  0 
    2.4143    3.3899    0.9455 C   0  0  0  0  0  0  0  0  0  0  0  0 
    0.9678    1.9283    2.2027 C   0  0  0  0  0  0  0  0  0  0  0  0 
    1.6637    4.4939    1.3372 C   0  0  0  0  0  0  0  0  0  0  0  0 
    0.2086    3.0178    2.6019 C   0  0  0  0  0  0  0  0  0  0  0  0 
    2.0872    2.0932    1.3659 C   0  0  0  0  0  0  0  0  0  0  0  0 
    0.5514    4.3104    2.1727 C   0  0  0  0  0  0  0  0  0  0  0  0 
    2.9426    0.9594    0.9019 C   0  0  0  0  0  0  0  0  0  0  0  0 
    3.9025    1.1594    0.1691 O   0  0  0  0  0  0  0  0  0  0  0  0 
   -0.2533    5.3109    2.6196 O   0  0  0  0  0  0  0  0  0  0  0  0 
    3.2868   -2.5062    1.1806 H   0  0  0  0  0  0  0  0  0  0  0  0 
    4.5912   -1.2999    1.1647 H   0  0  0  0  0  0  0  0  0  0  0  0 
    3.5845   -1.5157   -0.2643 H   0  0  0  0  0  0  0  0  0  0  0  0 
   -0.7254    7.2670    2.6948 H   0  0  0  0  0  0  0  0  0  0  0  0 
   -0.0212    6.7617    1.1336 H   0  0  0  0  0  0  0  0  0  0  0  0 
    1.0292    6.9599    2.5696 H   0  0  0  0  0  0  0  0  0  0  0  0 
    2.5657   -0.4725    2.4559 H   0  0  0  0  0  0  0  0  0  0  0  0 
    1.5702   -0.6825    1.0331 H   0  0  0  0  0  0  0  0  0  0  0  0 
    3.2770    3.5137    0.2988 H   0  0  0  0  0  0  0  0  0  0  0  0 
    0.6820    0.9401    2.5491 H   0  0  0  0  0  0  0  0  0  0  0  0 
    1.9466    5.4823    0.9938 H   0  0  0  0  0  0  0  0  0  0  0  0 
   -0.6570    2.8990    3.2458 H   0  0  0  0  0  0  0  0  0  0  0  0 
  1 14  1  0  0  0  0 
  1 13  1  0  0  0  0 
  1  3  1  0  0  0  0 
  2 18  1  0  0  0  0 
  2 12  1  0  0  0  0 
  2 16  1  0  0  0  0 
  3 19  1  0  0  0  0 
  4  6  2  0  0  0  0 
  4  8  1  0  0  0  0 
  5 22  1  0  0  0  0 
  5  7  1  0  0  0  0 
  6  9  1  0  0  0  0 
  7 24  1  0  0  0  0 
  8  5  2  0  0  0  0 
  9  7  2  0  0  0  0 
  9 12  1  0  0  0  0 
 10  3  1  0  0  0  0 
 10  8  1  0  0  0  0 
 11 10  2  0  0  0  0 
 15  1  1  0  0  0  0 
 17  2  1  0  0  0  0 
 20  3  1  0  0  0  0 
 21  4  1  0  0  0  0 
 23  6  1  0  0  0  0 
M  END 
>  <HBA> 
2 
 
>  <HBD> 
0 
 
>  <TPSA> 
26.3 
 
>  <cid> 
67144 
 
>  <dipole> 
3.07 
 
>  <excitation_energy_1> 
3.855 
 
>  <excitation_energy_2> 
4.66 
 
>  <excitation_energy_3> 
4.808 
 
>  <excitation_energy_4> 
5.397 
 
>  <homo_energy> 
-6.199 
 
>  <homo_lumo_gap> 
5.037 
 
>  <logP> 
2.288 
 
>  <lumo_energy> 
-1.162 
 
>  <melting_point> 
43.66 
 
>  <molecular_refractivity> 
47.94 
 
>  <oscillator_strength_1> 
0.0 
 
>  <oscillator_strength_2> 
0.371 
 
>  <oscillator_strength_3> 
0.0046 
 
>  <oscillator_strength_4> 
0.0001 
 
>  <open_babel_can_smiles> 
CCC(=O)c1ccc(cc1)OC 
 
>  <mulliken_charges> 
24 
1   -0.431106 
2   -0.219311 
3   -0.361776 
4   -0.168283 
5   -0.186913 
6   -0.197216 
7   -0.178079 
8   0.078424 
9   0.386814 
10   0.404998 
11   -0.473972 
12   -0.50175 
13   0.13587 
14   0.160114 
15   0.160918 
16   0.17442 
17   0.157802 
18   0.157796 
19   0.159353 
20   0.160328 
21   0.16412 
22   0.136697 
23   0.138109 
24   0.142642 
 
>  <lowdin_charges> 
24 
1   -0.435683 
2   -0.275167 
3   -0.305146 
4   -0.115475 
5   -0.1407 
6   -0.213259 
7   -0.183597 
8   -0.071461 
9   0.114088 
10   0.155055 
11   -0.252591 
12   -0.189996 
13   0.147539 
14   0.157754 
15   0.157035 
16   0.166812 
17   0.146585 
18   0.148228 
19   0.15756 
20   0.159389 
21   0.177194 
22   0.162506 
23   0.164515 
24   0.168814 
 
$$$$ 
 
