PCCDB-ID:  23351 
public computational chemistry database (PCCDB) project, http://pccdb.org 
 
 19 18  0  0  0  0  0  0  0  0999 V2000 
    4.6475    0.5384    2.6937 C   0  0  0  0  0  0  0  0  0  0  0  0 
    1.1220    1.7872   -1.1388 C   0  0  0  0  0  0  0  0  0  0  0  0 
    6.7972    2.9166   -2.7608 C   0  0  0  0  0  0  0  0  0  0  0  0 
    4.4303    0.2528    1.5395 C   0  0  0  0  0  0  0  0  0  0  0  0 
    2.2962    1.9727   -0.9289 C   0  0  0  0  0  0  0  0  0  0  0  0 
    6.4127    2.2018   -1.8673 C   0  0  0  0  0  0  0  0  0  0  0  0 
    4.1882   -0.0498    0.1147 C   0  0  0  0  0  0  0  0  0  0  0  0 
    3.7137    2.2270   -0.6617 C   0  0  0  0  0  0  0  0  0  0  0  0 
    5.9777    1.3401   -0.7645 C   0  0  0  0  0  0  0  0  0  0  0  0 
    4.5431    1.0215   -0.8245 N   0  0  0  0  0  0  0  0  0  0  0  0 
    4.8277    0.7763    3.7177 H   0  0  0  0  0  0  0  0  0  0  0  0 
    0.0858    1.6215   -1.3283 H   0  0  0  0  0  0  0  0  0  0  0  0 
    7.1338    3.5379   -3.5596 H   0  0  0  0  0  0  0  0  0  0  0  0 
    3.1279   -0.2810   -0.0355 H   0  0  0  0  0  0  0  0  0  0  0  0 
    4.7535   -0.9463   -0.1700 H   0  0  0  0  0  0  0  0  0  0  0  0 
    3.8207    2.6660    0.3483 H   0  0  0  0  0  0  0  0  0  0  0  0 
    4.0864    2.9718   -1.3739 H   0  0  0  0  0  0  0  0  0  0  0  0 
    6.2621    1.8069    0.1971 H   0  0  0  0  0  0  0  0  0  0  0  0 
    6.5251    0.3902   -0.8195 H   0  0  0  0  0  0  0  0  0  0  0  0 
  1 11  1  0  0  0  0 
  2  5  3  0  0  0  0 
  3  6  3  0  0  0  0 
  4  1  3  0  0  0  0 
  5  8  1  0  0  0  0 
  6  9  1  0  0  0  0 
  7  4  1  0  0  0  0 
  8 16  1  0  0  0  0 
  9 18  1  0  0  0  0 
 10  9  1  0  0  0  0 
 10  8  1  0  0  0  0 
 10  7  1  0  0  0  0 
 12  2  1  0  0  0  0 
 13  3  1  0  0  0  0 
 14  7  1  0  0  0  0 
 15  7  1  0  0  0  0 
 17  8  1  0  0  0  0 
 19  9  1  0  0  0  0 
M  END 
>  <HBA> 
1 
 
>  <HBD> 
0 
 
>  <TPSA> 
3.24 
 
>  <cid> 
23351 
 
>  <dipole> 
0.73 
 
>  <excitation_energy_1> 
5.588 
 
>  <excitation_energy_2> 
5.983 
 
>  <excitation_energy_3> 
6.167 
 
>  <excitation_energy_4> 
6.196 
 
>  <homo_energy> 
-6.357 
 
>  <homo_lumo_gap> 
6.917 
 
>  <logP> 
0.188 
 
>  <lumo_energy> 
0.561 
 
>  <melting_point> 
26.13 
 
>  <molecular_refractivity> 
42.76 
 
>  <oscillator_strength_1> 
0.0077 
 
>  <oscillator_strength_2> 
0.0095 
 
>  <oscillator_strength_3> 
0.0032 
 
>  <oscillator_strength_4> 
0.0113 
 
>  <open_babel_can_smiles> 
C#CCN(CC#C)CC#C 
 
>  <mulliken_charges> 
19 
1   -0.477616 
2   -0.522966 
3   -0.516687 
4   0.318344 
5   0.373364 
6   0.368041 
7   -0.291093 
8   -0.269569 
9   -0.254036 
10   -0.377383 
11   0.190926 
12   0.192157 
13   0.194376 
14   0.197867 
15   0.177313 
16   0.161934 
17   0.19363 
18   0.16448 
19   0.176919 
 
>  <lowdin_charges> 
19 
1   -0.252471 
2   -0.247983 
3   -0.246364 
4   -0.059611 
5   -0.039182 
6   -0.041427 
7   -0.192282 
8   -0.192144 
9   -0.186832 
10   -0.168005 
11   0.204774 
12   0.204438 
13   0.207445 
14   0.18082 
15   0.169202 
16   0.150908 
17   0.183713 
18   0.152992 
19   0.172009 
 
$$$$ 
 
