PCCDB-ID:  61209 
public computational chemistry database (PCCDB) project, http://pccdb.org 
 
 16 16  0  0  1  0  0  0  0  0999 V2000 
    0.9321    0.0251   -0.2134 C   0  0  0  0  0  0  0  0  0  0  0  0 
    3.0278   -1.1293    0.7715 C   0  0  0  0  0  0  0  0  0  0  0  0 
    3.0039   -0.7164    2.2625 C   0  0  0  0  0  0  0  0  0  0  0  0 
    2.4619    0.0777   -0.0240 C   0  0  2  0  0  0  0  0  0  0  0  0 
    3.1946    0.7919    2.2536 C   0  0  0  0  0  0  0  0  0  0  0  0 
    2.8348    1.2922    0.8211 C   0  0  0  0  0  0  0  0  0  0  0  0 
    3.5519    1.5106    3.1567 O   0  0  0  0  0  0  0  0  0  0  0  0 
    2.8384    2.4537    0.4860 O   0  0  0  0  0  0  0  0  0  0  0  0 
    0.6575   -0.8336   -0.8355 H   0  0  0  0  0  0  0  0  0  0  0  0 
    0.5761    0.9377   -0.7015 H   0  0  0  0  0  0  0  0  0  0  0  0 
    0.4064   -0.0726    0.7441 H   0  0  0  0  0  0  0  0  0  0  0  0 
    2.4602   -2.0460    0.5851 H   0  0  0  0  0  0  0  0  0  0  0  0 
    4.0622   -1.3215    0.4639 H   0  0  0  0  0  0  0  0  0  0  0  0 
    3.7549   -1.2116    2.8843 H   0  0  0  0  0  0  0  0  0  0  0  0 
    2.0239   -0.9262    2.7155 H   0  0  0  0  0  0  0  0  0  0  0  0 
    2.9300    0.1733   -1.0099 H   0  0  0  0  0  0  0  0  0  0  0  0 
  1  4  1  0  0  0  0 
  1 11  1  0  0  0  0 
  2  3  1  0  0  0  0 
  3 15  1  0  0  0  0 
  3 14  1  0  0  0  0 
  4 16  1  6  0  0  0 
  4  2  1  0  0  0  0 
  4  6  1  0  0  0  0 
  5  3  1  0  0  0  0 
  5  7  2  0  0  0  0 
  6  5  1  0  0  0  0 
  8  6  2  0  0  0  0 
  9  1  1  0  0  0  0 
 10  1  1  0  0  0  0 
 12  2  1  0  0  0  0 
 13  2  1  0  0  0  0 
M  END 
>  <HBA> 
2 
 
>  <HBD> 
0 
 
>  <TPSA> 
34.14 
 
>  <cid> 
61209 
 
>  <dipole> 
4.62 
 
>  <excitation_energy_1> 
2.301 
 
>  <excitation_energy_2> 
4.117 
 
>  <excitation_energy_3> 
5.629 
 
>  <excitation_energy_4> 
5.98 
 
>  <homo_energy> 
-6.308 
 
>  <homo_lumo_gap> 
3.848 
 
>  <logP> 
0.554 
 
>  <lumo_energy> 
-2.46 
 
>  <melting_point> 
38.8 
 
>  <molecular_refractivity> 
29.24 
 
>  <oscillator_strength_1> 
0.0001 
 
>  <oscillator_strength_2> 
0.0001 
 
>  <oscillator_strength_3> 
0.0012 
 
>  <oscillator_strength_4> 
0.0254 
 
>  <open_babel_can_smiles> 
C[C@@H]1CCC(=O)C1=O 
 
>  <mulliken_charges> 
16 
1   -0.453726 
2   -0.300316 
3   -0.374126 
4   -0.178683 
5   0.397707 
6   0.397157 
7   -0.406352 
8   -0.413299 
9   0.159606 
10   0.175857 
11   0.149933 
12   0.153512 
13   0.158685 
14   0.183286 
15   0.182889 
16   0.167871 
 
>  <lowdin_charges> 
16 
1   -0.437002 
2   -0.281434 
3   -0.318641 
4   -0.161645 
5   0.125293 
6   0.121853 
7   -0.175053 
8   -0.175353 
9   0.158852 
10   0.166653 
11   0.150645 
12   0.155186 
13   0.153157 
14   0.176799 
15   0.174365 
16   0.166324 
 
$$$$ 
 
