PCCDB-ID:  39605 
public computational chemistry database (PCCDB) project, http://pccdb.org 
 
 14 13  0  0  0  0  0  0  0  0999 V2000 
    1.0029    0.4842    0.2089 C   0  0  0  0  0  0  0  0  0  0  0  0 
    2.4556    0.1145    0.1017 C   0  0  0  0  0  0  0  0  0  0  0  0 
    2.2840   -2.4401    0.2567 C   0  0  0  0  0  0  0  0  0  0  0  0 
    2.9853   -1.1149    0.1094 C   0  0  0  0  0  0  0  0  0  0  0  0 
    2.5882   -3.3223   -0.8166 O   0  0  0  0  0  0  0  0  0  0  0  0 
    4.3402   -1.3567   -0.0167 O   0  0  0  0  0  0  0  0  0  0  0  0 
    0.6873    1.0882   -0.6522 H   0  0  0  0  0  0  0  0  0  0  0  0 
    0.8105    1.0886    1.1059 H   0  0  0  0  0  0  0  0  0  0  0  0 
    0.3470   -0.3894    0.2547 H   0  0  0  0  0  0  0  0  0  0  0  0 
    3.1463    0.9565    0.0074 H   0  0  0  0  0  0  0  0  0  0  0  0 
    1.2007   -2.3127    0.2622 H   0  0  0  0  0  0  0  0  0  0  0  0 
    2.5757   -2.8860    1.2230 H   0  0  0  0  0  0  0  0  0  0  0  0 
    3.5547   -3.3048   -0.9091 H   0  0  0  0  0  0  0  0  0  0  0  0 
    4.7970   -0.5205   -0.2001 H   0  0  0  0  0  0  0  0  0  0  0  0 
  1  9  1  0  0  0  0 
  1  8  1  0  0  0  0 
  2  4  2  0  0  0  0 
  2  1  1  0  0  0  0 
  3 11  1  0  0  0  0 
  3 12  1  0  0  0  0 
  4  3  1  0  0  0  0 
  5  3  1  0  0  0  0 
  6  4  1  0  0  0  0 
  7  1  1  0  0  0  0 
 10  2  1  0  0  0  0 
 13  5  1  0  0  0  0 
 14  6  1  0  0  0  0 
M  END 
>  <HBA> 
2 
 
>  <HBD> 
2 
 
>  <TPSA> 
40.46 
 
>  <cid> 
39605 
 
>  <dipole> 
2.44 
 
>  <excitation_energy_1> 
5.165 
 
>  <excitation_energy_2> 
5.882 
 
>  <excitation_energy_3> 
6.094 
 
>  <excitation_energy_4> 
6.486 
 
>  <homo_energy> 
-6.03 
 
>  <homo_lumo_gap> 
6.969 
 
>  <logP> 
0.441 
 
>  <lumo_energy> 
0.939 
 
>  <melting_point> 
17.88 
 
>  <molecular_refractivity> 
23.6 
 
>  <oscillator_strength_1> 
0.0036 
 
>  <oscillator_strength_2> 
0.0052 
 
>  <oscillator_strength_3> 
0.0707 
 
>  <oscillator_strength_4> 
0.0419 
 
>  <open_babel_can_smiles> 
C/C=C(\CO)/O 
 
>  <mulliken_charges> 
14 
1   -0.486125 
2   -0.198243 
3   -0.077916 
4   0.348784 
5   -0.61777 
6   -0.645334 
7   0.156541 
8   0.154863 
9   0.156874 
10   0.105796 
11   0.154386 
12   0.137877 
13   0.403341 
14   0.406929 
 
>  <lowdin_charges> 
14 
1   -0.434999 
2   -0.242413 
3   -0.131828 
4   0.070141 
5   -0.463335 
6   -0.40497 
7   0.157142 
8   0.155274 
9   0.156482 
10   0.144964 
11   0.15441 
12   0.138757 
13   0.343791 
14   0.356586 
 
$$$$ 
 
