PCCDB-ID:  20787 
public computational chemistry database (PCCDB) project, http://pccdb.org 
 
 27 27  0  0  0  0  0  0  0  0999 V2000 
   -2.8340    0.3717   -0.2034 C   0  0  0  0  0  0  0  0  0  0  0  0 
   -2.3352   -0.8895    0.1241 C   0  0  0  0  0  0  0  0  0  0  0  0 
   -1.9449    1.4289   -0.4101 C   0  0  0  0  0  0  0  0  0  0  0  0 
   -0.9592   -1.0945    0.2475 C   0  0  0  0  0  0  0  0  0  0  0  0 
   -0.5714    1.2203   -0.2893 C   0  0  0  0  0  0  0  0  0  0  0  0 
    1.9862   -4.6777   -1.1641 C   0  0  0  0  0  0  0  0  0  0  0  0 
    2.6605   -4.2395    0.1267 C   0  0  0  0  0  0  0  0  0  0  0  0 
    1.4377   -0.2163    0.2132 C   0  0  0  0  0  0  0  0  0  0  0  0 
   -0.0621   -0.0415    0.0443 C   0  0  0  0  0  0  0  0  0  0  0  0 
    3.0573   -1.8826   -0.0660 C   0  0  0  0  0  0  0  0  0  0  0  0 
    1.8446   -1.6147    0.1570 N   0  0  0  0  0  0  0  0  0  0  0  0 
    2.9214   -5.1477   -2.1234 O   0  0  0  0  0  0  0  0  0  0  0  0 
    4.0396   -0.9734   -0.2792 O   0  0  0  0  0  0  0  0  0  0  0  0 
    3.5689   -3.1385   -0.1243 O   0  0  0  0  0  0  0  0  0  0  0  0 
   -3.9048    0.5296   -0.3023 H   0  0  0  0  0  0  0  0  0  0  0  0 
   -3.0188   -1.7200    0.2828 H   0  0  0  0  0  0  0  0  0  0  0  0 
   -2.3205    2.4150   -0.6718 H   0  0  0  0  0  0  0  0  0  0  0  0 
   -0.5670   -2.0747    0.4956 H   0  0  0  0  0  0  0  0  0  0  0  0 
    0.1157    2.0476   -0.4584 H   0  0  0  0  0  0  0  0  0  0  0  0 
    1.3762   -3.8515   -1.5560 H   0  0  0  0  0  0  0  0  0  0  0  0 
    1.3172   -5.5174   -0.9467 H   0  0  0  0  0  0  0  0  0  0  0  0 
    3.3013   -5.0363    0.5120 H   0  0  0  0  0  0  0  0  0  0  0  0 
    1.9307   -3.9347    0.8804 H   0  0  0  0  0  0  0  0  0  0  0  0 
    1.7347    0.2040    1.1877 H   0  0  0  0  0  0  0  0  0  0  0  0 
    1.9608    0.3889   -0.5409 H   0  0  0  0  0  0  0  0  0  0  0  0 
    3.5344   -4.4155   -2.2951 H   0  0  0  0  0  0  0  0  0  0  0  0 
    4.8733   -1.4580   -0.4048 H   0  0  0  0  0  0  0  0  0  0  0  0 
  1  2  2  0  0  0  0 
  2  4  1  0  0  0  0 
  2 16  1  0  0  0  0 
  3  5  2  0  0  0  0 
  3  1  1  0  0  0  0 
  4 18  1  0  0  0  0 
  5  9  1  0  0  0  0 
  6 21  1  0  0  0  0 
  6  7  1  0  0  0  0 
  7 22  1  0  0  0  0 
  7 23  1  0  0  0  0 
  8 24  1  0  0  0  0 
  9  8  1  0  0  0  0 
  9  4  2  0  0  0  0 
 10 11  2  0  0  0  0 
 11  8  1  0  0  0  0 
 12  6  1  0  0  0  0 
 13 10  1  0  0  0  0 
 14 10  1  0  0  0  0 
 14  7  1  0  0  0  0 
 15  1  1  0  0  0  0 
 17  3  1  0  0  0  0 
 19  5  1  0  0  0  0 
 20  6  1  0  0  0  0 
 25  8  1  0  0  0  0 
 26 12  1  0  0  0  0 
 27 13  1  0  0  0  0 
M  END 
>  <HBA> 
4 
 
>  <HBD> 
2 
 
>  <TPSA> 
58.56 
 
>  <cid> 
20787 
 
>  <dipole> 
1.95 
 
>  <excitation_energy_1> 
5.263 
 
>  <excitation_energy_2> 
5.577 
 
>  <excitation_energy_3> 
5.813 
 
>  <excitation_energy_4> 
5.89 
 
>  <homo_energy> 
-6.259 
 
>  <homo_lumo_gap> 
6.436 
 
>  <logP> 
1.296 
 
>  <lumo_energy> 
0.177 
 
>  <melting_point> 
73.73 
 
>  <molecular_refractivity> 
51.47 
 
>  <oscillator_strength_1> 
0.0012 
 
>  <oscillator_strength_2> 
0.0025 
 
>  <oscillator_strength_3> 
0.0164 
 
>  <oscillator_strength_4> 
0.0011 
 
>  <open_babel_can_smiles> 
OCCO/C(=N/Cc1ccccc1)/O 
 
>  <mulliken_charges> 
27 
1   -0.129026 
2   -0.134384 
3   -0.130725 
4   -0.163403 
5   -0.178778 
6   -0.055118 
7   -0.059208 
8   -0.200107 
9   0.133309 
10   0.729504 
11   -0.489298 
12   -0.612783 
13   -0.599106 
14   -0.516428 
15   0.123662 
16   0.12375 
17   0.124685 
18   0.138675 
19   0.116947 
20   0.157298 
21   0.152334 
22   0.163247 
23   0.174807 
24   0.162069 
25   0.15489 
26   0.392308 
27   0.42088 
 
>  <lowdin_charges> 
27 
1   -0.161759 
2   -0.15788 
3   -0.156199 
4   -0.16387 
5   -0.171059 
6   -0.148968 
7   -0.147035 
8   -0.192159 
9   -0.007891 
10   0.188198 
11   -0.255578 
12   -0.466692 
13   -0.362611 
14   -0.223337 
15   0.153132 
16   0.15533 
17   0.154728 
18   0.162866 
19   0.152736 
20   0.146902 
21   0.156265 
22   0.160299 
23   0.166729 
24   0.155233 
25   0.150815 
26   0.342279 
27   0.369527 
 
$$$$ 
 
