PCCDB-ID:  16224 
public computational chemistry database (PCCDB) project, http://pccdb.org 
 
 34 33  0  0  0  0  0  0  0  0999 V2000 
    3.0864   -2.5944   -3.0607 C   0  0  0  0  0  0  0  0  0  0  0  0 
    8.2506    1.4330   -6.3480 C   0  0  0  0  0  0  0  0  0  0  0  0 
    9.5684    3.0411   -5.1563 C   0  0  0  0  0  0  0  0  0  0  0  0 
    3.8746   -2.9765   -1.8012 C   0  0  0  0  0  0  0  0  0  0  0  0 
    4.4321   -1.8139   -0.9570 C   0  0  0  0  0  0  0  0  0  0  0  0 
    5.6605   -1.0630   -1.5104 C   0  0  0  0  0  0  0  0  0  0  0  0 
    5.3846   -0.0147   -2.6014 C   0  0  0  0  0  0  0  0  0  0  0  0 
    6.5999    0.8564   -2.9597 C   0  0  0  0  0  0  0  0  0  0  0  0 
    7.7615    0.0915   -3.6095 C   0  0  0  0  0  0  0  0  0  0  0  0 
    8.9197    0.9966   -4.0521 C   0  0  0  0  0  0  0  0  0  0  0  0 
    8.5470    2.0092   -5.0433 N   0  0  0  0  0  0  0  0  0  0  0  0 
    2.6276   -3.4815   -3.5135 H   0  0  0  0  0  0  0  0  0  0  0  0 
    3.7184   -2.1295   -3.8235 H   0  0  0  0  0  0  0  0  0  0  0  0 
    2.2799   -1.8893   -2.8237 H   0  0  0  0  0  0  0  0  0  0  0  0 
    9.1144    0.8964   -6.7910 H   0  0  0  0  0  0  0  0  0  0  0  0 
    7.9556    2.2288   -7.0404 H   0  0  0  0  0  0  0  0  0  0  0  0 
    7.4164    0.7294   -6.2769 H   0  0  0  0  0  0  0  0  0  0  0  0 
   10.5449    2.6555   -5.5135 H   0  0  0  0  0  0  0  0  0  0  0  0 
    9.7280    3.5142   -4.1813 H   0  0  0  0  0  0  0  0  0  0  0  0 
    9.2360    3.8137   -5.8586 H   0  0  0  0  0  0  0  0  0  0  0  0 
    4.7028   -3.6456   -2.0772 H   0  0  0  0  0  0  0  0  0  0  0  0 
    3.2147   -3.5712   -1.1546 H   0  0  0  0  0  0  0  0  0  0  0  0 
    4.7150   -2.2314    0.0191 H   0  0  0  0  0  0  0  0  0  0  0  0 
    3.6261   -1.0933   -0.7497 H   0  0  0  0  0  0  0  0  0  0  0  0 
    6.3926   -1.7997   -1.8703 H   0  0  0  0  0  0  0  0  0  0  0  0 
    6.1462   -0.5457   -0.6695 H   0  0  0  0  0  0  0  0  0  0  0  0 
    4.5720    0.6416   -2.2575 H   0  0  0  0  0  0  0  0  0  0  0  0 
    5.0148   -0.4993   -3.5139 H   0  0  0  0  0  0  0  0  0  0  0  0 
    6.9662    1.3600   -2.0518 H   0  0  0  0  0  0  0  0  0  0  0  0 
    6.2870    1.6551   -3.6425 H   0  0  0  0  0  0  0  0  0  0  0  0 
    7.3867   -0.4923   -4.4619 H   0  0  0  0  0  0  0  0  0  0  0  0 
    8.1750   -0.6437   -2.9066 H   0  0  0  0  0  0  0  0  0  0  0  0 
    9.7578    0.3673   -4.4185 H   0  0  0  0  0  0  0  0  0  0  0  0 
    9.2949    1.5306   -3.1694 H   0  0  0  0  0  0  0  0  0  0  0  0 
  1 14  1  0  0  0  0 
  1  4  1  0  0  0  0 
  2 17  1  0  0  0  0 
  2 11  1  0  0  0  0 
  3 11  1  0  0  0  0 
  3 19  1  0  0  0  0 
  4 22  1  0  0  0  0 
  4  5  1  0  0  0  0 
  5 24  1  0  0  0  0 
  5 23  1  0  0  0  0 
  6  5  1  0  0  0  0 
  6 26  1  0  0  0  0 
  7 27  1  0  0  0  0 
  7  6  1  0  0  0  0 
  8  7  1  0  0  0  0 
  8 29  1  0  0  0  0 
  9  8  1  0  0  0  0 
  9 32  1  0  0  0  0 
 10  9  1  0  0  0  0 
 10 34  1  0  0  0  0 
 11 10  1  0  0  0  0 
 12  1  1  0  0  0  0 
 13  1  1  0  0  0  0 
 15  2  1  0  0  0  0 
 16  2  1  0  0  0  0 
 18  3  1  0  0  0  0 
 20  3  1  0  0  0  0 
 21  4  1  0  0  0  0 
 25  6  1  0  0  0  0 
 28  7  1  0  0  0  0 
 30  8  1  0  0  0  0 
 31  9  1  0  0  0  0 
 33 10  1  0  0  0  0 
M  END 
>  <HBA> 
1 
 
>  <HBD> 
0 
 
>  <TPSA> 
3.24 
 
>  <cid> 
16224 
 
>  <dipole> 
0.55 
 
>  <excitation_energy_1> 
5.258 
 
>  <excitation_energy_2> 
5.6 
 
>  <excitation_energy_3> 
5.635 
 
>  <excitation_energy_4> 
5.751 
 
>  <homo_energy> 
-5.63 
 
>  <homo_lumo_gap> 
7.905 
 
>  <logP> 
2.909 
 
>  <lumo_energy> 
2.275 
 
>  <melting_point> 
-26.58 
 
>  <molecular_refractivity> 
53.08 
 
>  <oscillator_strength_1> 
0.0297 
 
>  <oscillator_strength_2> 
0.0064 
 
>  <oscillator_strength_3> 
0.0063 
 
>  <oscillator_strength_4> 
0.0465 
 
>  <open_babel_can_smiles> 
CCCCCCCCN(C)C 
 
>  <mulliken_charges> 
34 
1   -0.442335 
2   -0.299653 
3   -0.291892 
4   -0.246604 
5   -0.253707 
6   -0.25295 
7   -0.258246 
8   -0.250482 
9   -0.272481 
10   -0.113363 
11   -0.360944 
12   0.138934 
13   0.148827 
14   0.140451 
15   0.114719 
16   0.146972 
17   0.152603 
18   0.114845 
19   0.147921 
20   0.145823 
21   0.128013 
22   0.129851 
23   0.126524 
24   0.125086 
25   0.12915 
26   0.12507 
27   0.125415 
28   0.132018 
29   0.120096 
30   0.15042 
31   0.129828 
32   0.133846 
33   0.105008 
34   0.131239 
 
>  <lowdin_charges> 
34 
1   -0.450717 
2   -0.36143 
3   -0.355291 
4   -0.275339 
5   -0.277724 
6   -0.280582 
7   -0.280078 
8   -0.279375 
9   -0.285558 
10   -0.201033 
11   -0.183297 
12   0.148482 
13   0.148137 
14   0.146631 
15   0.119726 
16   0.150808 
17   0.150893 
18   0.118207 
19   0.148744 
20   0.149164 
21   0.138515 
22   0.142495 
23   0.141842 
24   0.137771 
25   0.138886 
26   0.140017 
27   0.140223 
28   0.138938 
29   0.135423 
30   0.152109 
31   0.138794 
32   0.145607 
33   0.116302 
34   0.142708 
 
$$$$ 
 
