PCCDB-ID:  34747 
public computational chemistry database (PCCDB) project, http://pccdb.org 
 
 27 26  0  0  1  0  0  0  0  0999 V2000 
    2.8039    1.7944    1.1220 C   0  0  0  0  0  0  0  0  0  0  0  0 
    3.9599    1.2274   -4.7704 C   0  0  0  0  0  0  0  0  0  0  0  0 
    2.4284    0.4488    0.5058 C   0  0  1  0  0  0  0  0  0  0  0  0 
    3.2111    2.0292   -3.7074 C   0  0  2  0  0  0  0  0  0  0  0  0 
    3.4703   -0.1726   -0.4416 C   0  0  1  0  0  0  0  0  0  0  0  0 
    2.7545    1.1966   -2.5026 C   0  0  2  0  0  0  0  0  0  0  0  0 
    3.9163    0.6441   -1.6651 C   0  0  1  0  0  0  0  0  0  0  0  0 
    3.9524    0.0115   -4.8479 O   0  0  0  0  0  0  0  0  0  0  0  0 
    2.3028   -0.5560    1.5316 O   0  0  0  0  0  0  0  0  0  0  0  0 
    2.0757    2.5552   -4.3994 O   0  0  0  0  0  0  0  0  0  0  0  0 
    4.6779   -0.4395    0.2768 O   0  0  0  0  0  0  0  0  0  0  0  0 
    1.8734    0.1634   -2.9471 O   0  0  0  0  0  0  0  0  0  0  0  0 
    4.7282    1.7490   -1.2854 O   0  0  0  0  0  0  0  0  0  0  0  0 
    2.9199    2.5705    0.3621 H   0  0  0  0  0  0  0  0  0  0  0  0 
    3.7489    1.7102    1.6674 H   0  0  0  0  0  0  0  0  0  0  0  0 
    2.0258    2.1169    1.8270 H   0  0  0  0  0  0  0  0  0  0  0  0 
    4.4459    1.8383   -5.5578 H   0  0  0  0  0  0  0  0  0  0  0  0 
    1.4770    0.5337   -0.0394 H   0  0  0  0  0  0  0  0  0  0  0  0 
    3.8179    2.8778   -3.3804 H   0  0  0  0  0  0  0  0  0  0  0  0 
    3.0336   -1.1129   -0.8059 H   0  0  0  0  0  0  0  0  0  0  0  0 
    2.1445    1.8598   -1.8809 H   0  0  0  0  0  0  0  0  0  0  0  0 
    4.5038   -0.0469   -2.2899 H   0  0  0  0  0  0  0  0  0  0  0  0 
    1.7739   -0.1843    2.2541 H   0  0  0  0  0  0  0  0  0  0  0  0 
    1.4275    1.8252   -4.3940 H   0  0  0  0  0  0  0  0  0  0  0  0 
    4.3890   -0.8122    1.1287 H   0  0  0  0  0  0  0  0  0  0  0  0 
    2.4122   -0.4011   -3.5349 H   0  0  0  0  0  0  0  0  0  0  0  0 
    5.3095    1.4000   -0.5856 H   0  0  0  0  0  0  0  0  0  0  0  0 
  1 15  1  0  0  0  0 
  1 16  1  0  0  0  0 
  2  4  1  0  0  0  0 
  3 18  1  6  0  0  0 
  3  1  1  0  0  0  0 
  3  9  1  0  0  0  0 
  4 19  1  1  0  0  0 
  4  6  1  0  0  0  0 
  5 20  1  6  0  0  0 
  5 11  1  0  0  0  0 
  5  3  1  0  0  0  0 
  6 21  1  1  0  0  0 
  6  7  1  0  0  0  0 
  7 22  1  6  0  0  0 
  7 13  1  0  0  0  0 
  7  5  1  0  0  0  0 
  8  2  2  0  0  0  0 
  9 23  1  0  0  0  0 
 10 24  1  0  0  0  0 
 10  4  1  0  0  0  0 
 11 25  1  0  0  0  0 
 12  6  1  0  0  0  0 
 13 27  1  0  0  0  0 
 14  1  1  0  0  0  0 
 17  2  1  0  0  0  0 
 26 12  1  0  0  0  0 
M  END 
>  <HBA> 
6 
 
>  <HBD> 
5 
 
>  <TPSA> 
118.22 
 
>  <cid> 
34747 
 
>  <dipole> 
2.49 
 
>  <excitation_energy_1> 
3.949 
 
>  <excitation_energy_2> 
5.202 
 
>  <excitation_energy_3> 
5.415 
 
>  <excitation_energy_4> 
5.749 
 
>  <homo_energy> 
-6.936 
 
>  <homo_lumo_gap> 
5.665 
 
>  <logP> 
-2.99 
 
>  <lumo_energy> 
-1.271 
 
>  <melting_point> 
97.59 
 
>  <molecular_refractivity> 
41.77 
 
>  <oscillator_strength_1> 
0.0016 
 
>  <oscillator_strength_2> 
0.0036 
 
>  <oscillator_strength_3> 
0.0003 
 
>  <oscillator_strength_4> 
0.0024 
 
>  <open_babel_can_smiles> 
O=C[C@H]([C@H]([C@H]([C@H]([C@@H](O)C)O)O)O)O 
 
>  <mulliken_charges> 
27 
1   -0.477898 
2   0.24894 
3   0.10888 
4   0.063371 
5   0.131022 
6   0.080303 
7   0.096416 
8   -0.409728 
9   -0.651474 
10   -0.623741 
11   -0.668053 
12   -0.659025 
13   -0.655781 
14   0.175826 
15   0.152959 
16   0.131525 
17   0.139013 
18   0.140853 
19   0.177484 
20   0.142179 
21   0.1585 
22   0.142436 
23   0.397556 
24   0.407079 
25   0.415946 
26   0.416673 
27   0.418739 
 
>  <lowdin_charges> 
27 
1   -0.470443 
2   0.054868 
3   -0.018616 
4   -0.050099 
5   -0.026335 
6   -0.028902 
7   -0.030754 
8   -0.231666 
9   -0.475319 
10   -0.441523 
11   -0.473265 
12   -0.467778 
13   -0.468709 
14   0.168124 
15   0.155009 
16   0.145526 
17   0.139815 
18   0.141364 
19   0.172922 
20   0.148339 
21   0.157862 
22   0.144294 
23   0.348646 
24   0.349401 
25   0.353076 
26   0.349134 
27   0.355028 
 
$$$$ 
 
