PCCDB-ID:  69867 
public computational chemistry database (PCCDB) project, http://pccdb.org 
 
 19 20  0  0  0  0  0  0  0  0999 V2000 
    2.1599   -0.6603    0.0002 C   0  0  0  0  0  0  0  0  0  0  0  0 
    2.1384    0.7499    0.0195 C   0  0  0  0  0  0  0  0  0  0  0  0 
    0.9859   -1.4018   -0.0268 C   0  0  0  0  0  0  0  0  0  0  0  0 
    0.9399    1.4532    0.0145 C   0  0  0  0  0  0  0  0  0  0  0  0 
   -2.3857    0.0180   -0.0505 C   0  0  0  0  0  0  0  0  0  0  0  0 
   -0.2396   -0.7154   -0.0350 C   0  0  0  0  0  0  0  0  0  0  0  0 
   -1.6232   -1.1345   -0.0721 C   0  0  0  0  0  0  0  0  0  0  0  0 
   -0.2388    0.7015   -0.0117 C   0  0  0  0  0  0  0  0  0  0  0  0 
   -2.0892   -2.5302   -0.0830 C   0  0  0  0  0  0  0  0  0  0  0  0 
   -1.5638    1.1132   -0.0195 N   0  0  0  0  0  0  0  0  0  0  0  0 
   -1.3873   -3.4810    0.1803 O   0  0  0  0  0  0  0  0  0  0  0  0 
   -3.4042   -2.7361   -0.4058 O   0  0  0  0  0  0  0  0  0  0  0  0 
    3.1169   -1.1743    0.0091 H   0  0  0  0  0  0  0  0  0  0  0  0 
    3.0763    1.2978    0.0409 H   0  0  0  0  0  0  0  0  0  0  0  0 
    0.9948   -2.4857   -0.0323 H   0  0  0  0  0  0  0  0  0  0  0  0 
    0.9214    2.5397    0.0297 H   0  0  0  0  0  0  0  0  0  0  0  0 
   -3.4597    0.1479   -0.0165 H   0  0  0  0  0  0  0  0  0  0  0  0 
   -1.8775    2.0709    0.0260 H   0  0  0  0  0  0  0  0  0  0  0  0 
   -3.7838   -1.9215   -0.7722 H   0  0  0  0  0  0  0  0  0  0  0  0 
  1 13  1  0  0  0  0 
  1  2  2  0  0  0  0 
  2 14  1  0  0  0  0 
  3  1  1  0  0  0  0 
  4  2  1  0  0  0  0 
  4 16  1  0  0  0  0 
  5 10  1  0  0  0  0 
  5 17  1  0  0  0  0 
  6  3  2  0  0  0  0 
  6  8  1  0  0  0  0 
  7  5  2  0  0  0  0 
  7  6  1  0  0  0  0 
  8  4  2  0  0  0  0 
  9  7  1  0  0  0  0 
  9 11  2  0  0  0  0 
 10  8  1  0  0  0  0 
 10 18  1  0  0  0  0 
 12  9  1  0  0  0  0 
 15  3  1  0  0  0  0 
 19 12  1  0  0  0  0 
M  END 
>  <HBA> 
2 
 
>  <HBD> 
2 
 
>  <TPSA> 
53.09 
 
>  <cid> 
69867 
 
>  <dipole> 
6.52 
 
>  <excitation_energy_1> 
4.531 
 
>  <excitation_energy_2> 
4.706 
 
>  <excitation_energy_3> 
4.942 
 
>  <excitation_energy_4> 
4.998 
 
>  <homo_energy> 
-6.022 
 
>  <homo_lumo_gap> 
5.072 
 
>  <logP> 
1.866 
 
>  <lumo_energy> 
-0.95 
 
>  <melting_point> 
187.26 
 
>  <molecular_refractivity> 
45.26 
 
>  <oscillator_strength_1> 
0.1097 
 
>  <oscillator_strength_2> 
0.0577 
 
>  <oscillator_strength_3> 
0.0 
 
>  <oscillator_strength_4> 
0.0033 
 
>  <open_babel_can_smiles> 
OC(=O)c1c[nH]c2c1cccc2 
 
>  <mulliken_charges> 
19 
1   -0.141978 
2   -0.14575 
3   -0.190831 
4   -0.161463 
5   0.003396 
6   0.081839 
7   -0.03699 
8   0.311422 
9   0.563097 
10   -0.689959 
11   -0.462111 
12   -0.586432 
13   0.131012 
14   0.130086 
15   0.168331 
16   0.126964 
17   0.160288 
18   0.336231 
19   0.402848 
 
>  <lowdin_charges> 
19 
1   -0.167211 
2   -0.156279 
3   -0.144078 
4   -0.183289 
5   -0.119844 
6   -0.016622 
7   -0.110084 
8   0.030906 
9   0.202619 
10   -0.179729 
11   -0.25129 
12   -0.371154 
13   0.159615 
14   0.159403 
15   0.177152 
16   0.156086 
17   0.165594 
18   0.295567 
19   0.352638 
 
$$$$ 
 
