PCCDB-ID:  6455 
public computational chemistry database (PCCDB) project, http://pccdb.org 
 
 28 28  0  0  1  0  0  0  0  0999 V2000 
    1.1089   -0.2955    0.3603 C   0  0  0  0  0  0  0  0  0  0  0  0 
    5.0884   -0.6451   -2.9617 C   0  0  0  0  0  0  0  0  0  0  0  0 
    4.8204    1.5053   -1.6806 C   0  0  0  0  0  0  0  0  0  0  0  0 
    2.5167    0.1631   -0.0385 C   0  0  0  0  0  0  0  0  0  0  0  0 
    4.5384   -0.0076   -1.6754 C   0  0  0  0  0  0  0  0  0  0  0  0 
    2.1111    0.0738   -2.5386 C   0  0  0  0  0  0  0  0  0  0  0  0 
    2.9313   -1.9272   -1.3871 C   0  0  0  0  0  0  0  0  0  0  0  0 
    1.7994   -2.0574   -3.4043 C   0  0  0  0  0  0  0  0  0  0  0  0 
    3.0239   -0.3984   -1.4055 C   0  0  2  0  0  0  0  0  0  0  0  0 
    1.5710   -0.6578   -3.4285 N   0  0  0  0  0  0  0  0  0  0  0  0 
    2.3823   -2.6675   -2.2632 N   0  0  0  0  0  0  0  0  0  0  0  0 
    1.8450    1.3997   -2.6103 O   0  0  0  0  0  0  0  0  0  0  0  0 
    3.5205   -2.5590   -0.3445 O   0  0  0  0  0  0  0  0  0  0  0  0 
    1.4780   -2.7371   -4.3521 O   0  0  0  0  0  0  0  0  0  0  0  0 
    0.8254    0.1493    1.3195 H   0  0  0  0  0  0  0  0  0  0  0  0 
    1.0529   -1.3837    0.4648 H   0  0  0  0  0  0  0  0  0  0  0  0 
    0.3657    0.0104   -0.3834 H   0  0  0  0  0  0  0  0  0  0  0  0 
    6.1457   -0.3855   -3.0794 H   0  0  0  0  0  0  0  0  0  0  0  0 
    4.5559   -0.2799   -3.8470 H   0  0  0  0  0  0  0  0  0  0  0  0 
    5.0132   -1.7362   -2.9497 H   0  0  0  0  0  0  0  0  0  0  0  0 
    5.9018    1.6679   -1.7375 H   0  0  0  0  0  0  0  0  0  0  0  0 
    4.4733    2.0131   -0.7735 H   0  0  0  0  0  0  0  0  0  0  0  0 
    4.3801    1.9962   -2.5558 H   0  0  0  0  0  0  0  0  0  0  0  0 
    3.2363   -0.1057    0.7483 H   0  0  0  0  0  0  0  0  0  0  0  0 
    2.5441    1.2586   -0.0537 H   0  0  0  0  0  0  0  0  0  0  0  0 
    5.0961   -0.4324   -0.8276 H   0  0  0  0  0  0  0  0  0  0  0  0 
    2.3170    1.8767   -1.9117 H   0  0  0  0  0  0  0  0  0  0  0  0 
    3.8957   -1.9131    0.2736 H   0  0  0  0  0  0  0  0  0  0  0  0 
  1 16  1  0  0  0  0 
  1 15  1  0  0  0  0 
  2 20  1  0  0  0  0 
  2  5  1  0  0  0  0 
  3  5  1  0  0  0  0 
  3 22  1  0  0  0  0 
  4  1  1  0  0  0  0 
  4 24  1  0  0  0  0 
  5 26  1  0  0  0  0 
  6  9  1  0  0  0  0 
  7 13  1  0  0  0  0 
  8 11  1  0  0  0  0 
  9  5  1  6  0  0  0 
  9  7  1  0  0  0  0 
  9  4  1  0  0  0  0 
 10  8  2  0  0  0  0 
 10  6  2  0  0  0  0 
 11  7  2  0  0  0  0 
 12  6  1  0  0  0  0 
 12 27  1  0  0  0  0 
 13 28  1  0  0  0  0 
 14  8  2  0  0  0  0 
 17  1  1  0  0  0  0 
 18  2  1  0  0  0  0 
 19  2  1  0  0  0  0 
 21  3  1  0  0  0  0 
 23  3  1  0  0  0  0 
 25  4  1  0  0  0  0 
M  END 
>  <HBA> 
5 
 
>  <HBD> 
2 
 
>  <TPSA> 
75.27 
 
>  <cid> 
6455 
 
>  <dipole> 
9.96 
 
>  <excitation_energy_1> 
3.993 
 
>  <excitation_energy_2> 
4.199 
 
>  <excitation_energy_3> 
5.242 
 
>  <excitation_energy_4> 
5.533 
 
>  <homo_energy> 
-6.874 
 
>  <homo_lumo_gap> 
5.38 
 
>  <logP> 
1.062 
 
>  <lumo_energy> 
-1.494 
 
>  <melting_point> 
141.57 
 
>  <molecular_refractivity> 
57.43 
 
>  <oscillator_strength_1> 
0.0003 
 
>  <oscillator_strength_2> 
0.0002 
 
>  <oscillator_strength_3> 
0.0004 
 
>  <oscillator_strength_4> 
0.0155 
 
>  <open_babel_can_smiles> 
CC[C@@]1(C(C)C)C(=N[C](=[N]=C1O)=O)O 
 
>  <mulliken_charges> 
28 
1   -0.465552 
2   -0.477506 
3   -0.49621 
4   -0.304892 
5   -0.070014 
6   0.531713 
7   0.541176 
8   0.616624 
9   -0.126052 
10   -0.464105 
11   -0.467229 
12   -0.579366 
13   -0.581157 
14   -0.430943 
15   0.161622 
16   0.181153 
17   0.181137 
18   0.156638 
19   0.176769 
20   0.184821 
21   0.171263 
22   0.147267 
23   0.170355 
24   0.136047 
25   0.142693 
26   0.125055 
27   0.421473 
28   0.417219 
 
>  <lowdin_charges> 
28 
1   -0.452352 
2   -0.451892 
3   -0.462496 
4   -0.275541 
5   -0.115332 
6   0.149307 
7   0.148741 
8   0.174475 
9   -0.066637 
10   -0.18505 
11   -0.185878 
12   -0.334991 
13   -0.334097 
14   -0.211168 
15   0.162202 
16   0.164697 
17   0.167949 
18   0.158283 
19   0.165277 
20   0.167524 
21   0.165643 
22   0.148921 
23   0.160213 
24   0.143029 
25   0.14372 
26   0.139014 
27   0.358316 
28   0.358123 
 
$$$$ 
 
