PCCDB-ID:  13829 
public computational chemistry database (PCCDB) project, http://pccdb.org 
 
 29 28  0  0  0  0  0  0  0  0999 V2000 
    2.3394   -2.1545    3.9748 C   0  0  0  0  0  0  0  0  0  0  0  0 
    3.4553    0.1180    4.0810 C   0  0  0  0  0  0  0  0  0  0  0  0 
    1.7936    1.5977    0.6671 C   0  0  0  0  0  0  0  0  0  0  0  0 
    3.9577    2.4577   -0.3339 C   0  0  0  0  0  0  0  0  0  0  0  0 
    3.7308   -1.3937    2.0374 C   0  0  0  0  0  0  0  0  0  0  0  0 
    3.5607   -0.0705   -0.1698 C   0  0  0  0  0  0  0  0  0  0  0  0 
    2.7965   -0.9271    3.1715 C   0  0  0  0  0  0  0  0  0  0  0  0 
    2.9207    1.3256   -0.3371 C   0  0  0  0  0  0  0  0  0  0  0  0 
    5.4631    0.1367    1.2213 N   0  0  0  0  0  0  0  0  0  0  0  0 
    4.2123   -0.3505    1.1197 N   0  0  0  0  0  0  0  0  0  0  0  0 
    6.0776   -0.1775    2.2367 O   0  0  0  0  0  0  0  0  0  0  0  0 
    1.6490   -1.8616    4.7737 H   0  0  0  0  0  0  0  0  0  0  0  0 
    3.1946   -2.6582    4.4431 H   0  0  0  0  0  0  0  0  0  0  0  0 
    1.8250   -2.8868    3.3404 H   0  0  0  0  0  0  0  0  0  0  0  0 
    2.7497    0.4583    4.8480 H   0  0  0  0  0  0  0  0  0  0  0  0 
    3.7887    0.9937    3.5149 H   0  0  0  0  0  0  0  0  0  0  0  0 
    4.3346   -0.2984    4.5846 H   0  0  0  0  0  0  0  0  0  0  0  0 
    1.3059    2.5539    0.4463 H   0  0  0  0  0  0  0  0  0  0  0  0 
    2.1800    1.6544    1.6904 H   0  0  0  0  0  0  0  0  0  0  0  0 
    1.0240    0.8165    0.6358 H   0  0  0  0  0  0  0  0  0  0  0  0 
    3.4759    3.4147   -0.5658 H   0  0  0  0  0  0  0  0  0  0  0  0 
    4.7444    2.2839   -1.0762 H   0  0  0  0  0  0  0  0  0  0  0  0 
    4.4453    2.5522    0.6418 H   0  0  0  0  0  0  0  0  0  0  0  0 
    3.2192   -2.1470    1.4274 H   0  0  0  0  0  0  0  0  0  0  0  0 
    4.6284   -1.8470    2.4704 H   0  0  0  0  0  0  0  0  0  0  0  0 
    4.3091   -0.2125   -0.9576 H   0  0  0  0  0  0  0  0  0  0  0  0 
    2.7923   -0.8386   -0.3026 H   0  0  0  0  0  0  0  0  0  0  0  0 
    1.9067   -0.4752    2.7120 H   0  0  0  0  0  0  0  0  0  0  0  0 
    2.4702    1.2908   -1.3412 H   0  0  0  0  0  0  0  0  0  0  0  0 
  1 13  1  0  0  0  0 
  1 12  1  0  0  0  0 
  2 17  1  0  0  0  0 
  2 15  1  0  0  0  0 
  3 19  1  0  0  0  0 
  4 23  1  0  0  0  0 
  5 25  1  0  0  0  0 
  5  7  1  0  0  0  0 
  6 10  1  0  0  0  0 
  7  1  1  0  0  0  0 
  7  2  1  0  0  0  0 
  8  4  1  0  0  0  0 
  8  6  1  0  0  0  0 
  8  3  1  0  0  0  0 
  9 11  2  0  0  0  0 
 10  9  1  0  0  0  0 
 10  5  1  0  0  0  0 
 14  1  1  0  0  0  0 
 16  2  1  0  0  0  0 
 18  3  1  0  0  0  0 
 20  3  1  0  0  0  0 
 21  4  1  0  0  0  0 
 22  4  1  0  0  0  0 
 24  5  1  0  0  0  0 
 26  6  1  0  0  0  0 
 27  6  1  0  0  0  0 
 28  7  1  0  0  0  0 
 29  8  1  0  0  0  0 
M  END 
>  <HBA> 
3 
 
>  <HBD> 
0 
 
>  <TPSA> 
32.67 
 
>  <cid> 
13829 
 
>  <dipole> 
3.78 
 
>  <excitation_energy_1> 
3.26 
 
>  <excitation_energy_2> 
5.513 
 
>  <excitation_energy_3> 
5.585 
 
>  <excitation_energy_4> 
5.99 
 
>  <homo_energy> 
-5.965 
 
>  <homo_lumo_gap> 
5.091 
 
>  <logP> 
2.282 
 
>  <lumo_energy> 
-0.873 
 
>  <melting_point> 
-6.2 
 
>  <molecular_refractivity> 
48.2 
 
>  <oscillator_strength_1> 
0.0011 
 
>  <oscillator_strength_2> 
0.1096 
 
>  <oscillator_strength_3> 
0.0224 
 
>  <oscillator_strength_4> 
0.0023 
 
>  <open_babel_can_smiles> 
CC(CN(CC(C)C)N=O)C 
 
>  <mulliken_charges> 
29 
1   -0.446985 
2   -0.443013 
3   -0.454872 
4   -0.440902 
5   -0.141559 
6   -0.137046 
7   -0.077045 
8   -0.070432 
9   0.152989 
10   -0.239452 
11   -0.379092 
12   0.148766 
13   0.148142 
14   0.13894 
15   0.136776 
16   0.155705 
17   0.158145 
18   0.14802 
19   0.16211 
20   0.137381 
21   0.139366 
22   0.147046 
23   0.162873 
24   0.143165 
25   0.179937 
26   0.165326 
27   0.147142 
28   0.129696 
29   0.128871 
 
>  <lowdin_charges> 
29 
1   -0.447348 
2   -0.449119 
3   -0.449835 
4   -0.448044 
5   -0.22123 
6   -0.204464 
7   -0.127256 
8   -0.123915 
9   0.052938 
10   -0.049976 
11   -0.269104 
12   0.154449 
13   0.151069 
14   0.148009 
15   0.148062 
16   0.154117 
17   0.157337 
18   0.153409 
19   0.153552 
20   0.145894 
21   0.14825 
22   0.153131 
23   0.156483 
24   0.150904 
25   0.168502 
26   0.159496 
27   0.153353 
28   0.139542 
29   0.141794 
 
$$$$ 
 
