PCCDB-ID:  69284 
public computational chemistry database (PCCDB) project, http://pccdb.org 
 
 25 26  0  0  0  0  0  0  0  0999 V2000 
    3.3675    2.2434    2.0131 C   0  0  0  0  0  0  0  0  0  0  0  0 
    3.4432    2.5665    0.6571 C   0  0  0  0  0  0  0  0  0  0  0  0 
    3.3477    0.9033    2.4071 C   0  0  0  0  0  0  0  0  0  0  0  0 
    5.0723   -3.8632   -1.8673 C   0  0  0  0  0  0  0  0  0  0  0  0 
    6.3155   -3.7843   -1.2386 C   0  0  0  0  0  0  0  0  0  0  0  0 
    3.5090    1.5577   -0.3054 C   0  0  0  0  0  0  0  0  0  0  0  0 
    3.4032   -0.1143    1.4544 C   0  0  0  0  0  0  0  0  0  0  0  0 
    4.1341   -2.8447   -1.7197 C   0  0  0  0  0  0  0  0  0  0  0  0 
    5.6734   -1.6129   -0.3053 C   0  0  0  0  0  0  0  0  0  0  0  0 
    6.5838   -2.6552   -0.4708 C   0  0  0  0  0  0  0  0  0  0  0  0 
    3.4903    0.2255    0.1029 C   0  0  0  0  0  0  0  0  0  0  0  0 
    4.4341   -1.7208   -0.9376 C   0  0  0  0  0  0  0  0  0  0  0  0 
    7.8935   -2.5462    0.1985 N   0  0  0  0  0  0  0  0  0  0  0  0 
    8.6904   -3.4716    0.0476 O   0  0  0  0  0  0  0  0  0  0  0  0 
    8.1126   -1.5377    0.8689 O   0  0  0  0  0  0  0  0  0  0  0  0 
    3.4660   -0.7512   -0.8871 O   0  0  0  0  0  0  0  0  0  0  0  0 
    3.3226    3.0310    2.7596 H   0  0  0  0  0  0  0  0  0  0  0  0 
    3.4565    3.6066    0.3435 H   0  0  0  0  0  0  0  0  0  0  0  0 
    3.2819    0.6452    3.4603 H   0  0  0  0  0  0  0  0  0  0  0  0 
    4.8304   -4.7307   -2.4738 H   0  0  0  0  0  0  0  0  0  0  0  0 
    7.0599   -4.5642   -1.3306 H   0  0  0  0  0  0  0  0  0  0  0  0 
    3.5674    1.7859   -1.3648 H   0  0  0  0  0  0  0  0  0  0  0  0 
    3.3730   -1.1586    1.7493 H   0  0  0  0  0  0  0  0  0  0  0  0 
    3.1632   -2.8967   -2.2016 H   0  0  0  0  0  0  0  0  0  0  0  0 
    5.9400   -0.7545    0.2963 H   0  0  0  0  0  0  0  0  0  0  0  0 
  1  3  1  0  0  0  0 
  1 17  1  0  0  0  0 
  2  1  2  0  0  0  0 
  3 19  1  0  0  0  0 
  4  8  2  0  0  0  0 
  4  5  1  0  0  0  0 
  5 10  2  0  0  0  0 
  6 11  2  0  0  0  0 
  6  2  1  0  0  0  0 
  7 23  1  0  0  0  0 
  7  3  2  0  0  0  0 
  8 12  1  0  0  0  0 
  9 25  1  0  0  0  0 
 10  9  1  0  0  0  0 
 10 13  1  0  0  0  0 
 11  7  1  0  0  0  0 
 12 16  1  0  0  0  0 
 12  9  2  0  0  0  0 
 13 15  2  0  0  0  0 
 14 13  2  0  0  0  0 
 16 11  1  0  0  0  0 
 18  2  1  0  0  0  0 
 20  4  1  0  0  0  0 
 21  5  1  0  0  0  0 
 22  6  1  0  0  0  0 
 24  8  1  0  0  0  0 
M  END 
>  <HBA> 
1 
 
>  <HBD> 
0 
 
>  <TPSA> 
55.05 
 
>  <cid> 
69284 
 
>  <dipole> 
3.86 
 
>  <excitation_energy_1> 
3.36 
 
>  <excitation_energy_2> 
3.735 
 
>  <excitation_energy_3> 
4.011 
 
>  <excitation_energy_4> 
4.15 
 
>  <homo_energy> 
-6.498 
 
>  <homo_lumo_gap> 
4.104 
 
>  <logP> 
3.91 
 
>  <lumo_energy> 
-2.395 
 
>  <melting_point> 
80.55 
 
>  <molecular_refractivity> 
61.78 
 
>  <oscillator_strength_1> 
0.0233 
 
>  <oscillator_strength_2> 
0.0009 
 
>  <oscillator_strength_3> 
0.0092 
 
>  <oscillator_strength_4> 
0.011 
 
>  <open_babel_can_smiles> 
O=N(=O)c1cccc(c1)Oc1ccccc1 
 
>  <mulliken_charges> 
25 
1   -0.12261 
2   -0.138623 
3   -0.136557 
4   -0.144952 
5   -0.155673 
6   -0.161314 
7   -0.154264 
8   -0.152588 
9   -0.214893 
10   0.270318 
11   0.330177 
12   0.357707 
13   0.382637 
14   -0.392991 
15   -0.39411 
16   -0.576563 
17   0.137382 
18   0.140994 
19   0.142216 
20   0.151712 
21   0.18087 
22   0.146845 
23   0.148374 
24   0.157195 
25   0.198712 
 
>  <lowdin_charges> 
25 
1   -0.161067 
2   -0.143832 
3   -0.143303 
4   -0.13965 
5   -0.157771 
6   -0.170525 
7   -0.176092 
8   -0.158215 
9   -0.184234 
10   0.011081 
11   0.09455 
12   0.110123 
13   0.310217 
14   -0.245747 
15   -0.245524 
16   -0.158712 
17   0.16342 
18   0.162324 
19   0.162538 
20   0.170064 
21   0.188547 
22   0.169204 
23   0.168652 
24   0.175543 
25   0.198411 
 
$$$$ 
 
