PCCDB-ID:  43851 
public computational chemistry database (PCCDB) project, http://pccdb.org 
 
 37 36  0  0  1  0  0  0  0  0999 V2000 
    6.9806    2.0882    0.2130 C   0  0  0  0  0  0  0  0  0  0  0  0 
    5.0062   -3.7663   -4.8804 C   0  0  0  0  0  0  0  0  0  0  0  0 
    5.1680    1.0664   -2.2238 C   0  0  0  0  0  0  0  0  0  0  0  0 
    9.2836   -6.1092   -1.9252 C   0  0  0  0  0  0  0  0  0  0  0  0 
    5.0296   -5.1172   -2.2423 C   0  0  0  0  0  0  0  0  0  0  0  0 
    5.6011    1.4068    0.2752 C   0  0  0  0  0  0  0  0  0  0  0  0 
    6.0401   -3.6353   -4.0504 C   0  0  0  0  0  0  0  0  0  0  0  0 
    5.0470   -2.0138   -1.5854 C   0  0  0  0  0  0  0  0  0  0  0  0 
    5.2684   -0.8824   -0.6156 C   0  0  0  0  0  0  0  0  0  0  0  0 
    6.2774   -2.9432   -1.6511 C   0  0  0  0  0  0  0  0  0  0  0  0 
    5.3399    0.4356   -0.8616 C   0  0  0  0  0  0  0  0  0  0  0  0 
    7.9530   -5.4741   -1.5777 C   0  0  0  0  0  0  0  0  0  0  0  0 
    6.1425   -4.1395   -2.6245 C   0  0  1  0  0  0  0  0  0  0  0  0 
    7.4336   -5.5290   -0.4827 O   0  0  0  0  0  0  0  0  0  0  0  0 
    7.4433   -4.8503   -2.6621 O   0  0  0  0  0  0  0  0  0  0  0  0 
    7.1242    2.7520    1.0731 H   0  0  0  0  0  0  0  0  0  0  0  0 
    7.0970    2.6938   -0.6926 H   0  0  0  0  0  0  0  0  0  0  0  0 
    7.7830    1.3417    0.2229 H   0  0  0  0  0  0  0  0  0  0  0  0 
    5.0360   -3.3415   -5.8800 H   0  0  0  0  0  0  0  0  0  0  0  0 
    4.0970   -4.2951   -4.6098 H   0  0  0  0  0  0  0  0  0  0  0  0 
    6.0691    1.6160   -2.5255 H   0  0  0  0  0  0  0  0  0  0  0  0 
    4.3490    1.7992   -2.2072 H   0  0  0  0  0  0  0  0  0  0  0  0 
    4.9482    0.3403   -3.0097 H   0  0  0  0  0  0  0  0  0  0  0  0 
    9.6898   -6.6030   -1.0416 H   0  0  0  0  0  0  0  0  0  0  0  0 
    9.9836   -5.3470   -2.2828 H   0  0  0  0  0  0  0  0  0  0  0  0 
    9.1550   -6.8367   -2.7333 H   0  0  0  0  0  0  0  0  0  0  0  0 
    4.0511   -4.6357   -2.3303 H   0  0  0  0  0  0  0  0  0  0  0  0 
    5.1584   -5.4591   -1.2150 H   0  0  0  0  0  0  0  0  0  0  0  0 
    5.0440   -5.9839   -2.9105 H   0  0  0  0  0  0  0  0  0  0  0  0 
    4.8249    2.1873    0.2725 H   0  0  0  0  0  0  0  0  0  0  0  0 
    5.5076    0.8791    1.2320 H   0  0  0  0  0  0  0  0  0  0  0  0 
    6.9284   -3.0981   -4.3828 H   0  0  0  0  0  0  0  0  0  0  0  0 
    4.8065   -1.6449   -2.5866 H   0  0  0  0  0  0  0  0  0  0  0  0 
    4.1762   -2.5963   -1.2520 H   0  0  0  0  0  0  0  0  0  0  0  0 
    5.4062   -1.2033    0.4191 H   0  0  0  0  0  0  0  0  0  0  0  0 
    6.4933   -3.3371   -0.6541 H   0  0  0  0  0  0  0  0  0  0  0  0 
    7.1507   -2.3560   -1.9622 H   0  0  0  0  0  0  0  0  0  0  0  0 
  1 18  1  0  0  0  0 
  1  6  1  0  0  0  0 
  1 16  1  0  0  0  0 
  2 20  1  0  0  0  0 
  2  7  2  0  0  0  0 
  3 22  1  0  0  0  0 
  3 11  1  0  0  0  0 
  4 12  1  0  0  0  0 
  4 24  1  0  0  0  0 
  5 28  1  0  0  0  0 
  6 31  1  0  0  0  0 
  8 34  1  0  0  0  0 
  8  9  1  0  0  0  0 
  9 35  1  0  0  0  0 
 10  8  1  0  0  0  0 
 10 36  1  0  0  0  0 
 11  9  2  0  0  0  0 
 11  6  1  0  0  0  0 
 12 14  2  0  0  0  0 
 13  7  1  6  0  0  0 
 13  5  1  0  0  0  0 
 13 10  1  0  0  0  0 
 15 13  1  0  0  0  0 
 15 12  1  0  0  0  0 
 17  1  1  0  0  0  0 
 19  2  1  0  0  0  0 
 21  3  1  0  0  0  0 
 23  3  1  0  0  0  0 
 25  4  1  0  0  0  0 
 26  4  1  0  0  0  0 
 27  5  1  0  0  0  0 
 29  5  1  0  0  0  0 
 30  6  1  0  0  0  0 
 32  7  1  0  0  0  0 
 33  8  1  0  0  0  0 
 37 10  1  0  0  0  0 
M  END 
>  <HBA> 
2 
 
>  <HBD> 
0 
 
>  <TPSA> 
26.3 
 
>  <cid> 
43851 
 
>  <dipole> 
1.94 
 
>  <excitation_energy_1> 
5.478 
 
>  <excitation_energy_2> 
5.628 
 
>  <excitation_energy_3> 
5.702 
 
>  <excitation_energy_4> 
5.939 
 
>  <homo_energy> 
-6.191 
 
>  <homo_lumo_gap> 
6.378 
 
>  <logP> 
3.631 
 
>  <lumo_energy> 
0.188 
 
>  <melting_point> 
-15.14 
 
>  <molecular_refractivity> 
64.98 
 
>  <oscillator_strength_1> 
0.0003 
 
>  <oscillator_strength_2> 
0.0008 
 
>  <oscillator_strength_3> 
0.009 
 
>  <oscillator_strength_4> 
0.0095 
 
>  <open_babel_can_smiles> 
CC/C(=C/CC[C@](OC(=O)C)(C=C)C)/C 
 
>  <mulliken_charges> 
37 
1   -0.441028 
2   -0.339885 
3   -0.522343 
4   -0.518945 
5   -0.495726 
6   -0.318644 
7   -0.062125 
8   -0.31513 
9   -0.171508 
10   -0.292768 
11   0.193834 
12   0.615821 
13   0.293946 
14   -0.475753 
15   -0.502933 
16   0.143399 
17   0.143867 
18   0.148317 
19   0.145418 
20   0.145632 
21   0.155323 
22   0.151068 
23   0.155355 
24   0.179637 
25   0.178446 
26   0.180098 
27   0.152767 
28   0.190189 
29   0.154686 
30   0.133349 
31   0.139788 
32   0.136514 
33   0.146938 
34   0.143193 
35   0.114853 
36   0.17613 
37   0.138219 
 
>  <lowdin_charges> 
37 
1   -0.445842 
2   -0.33329 
3   -0.448159 
4   -0.466542 
5   -0.458536 
6   -0.269363 
7   -0.147511 
8   -0.277653 
9   -0.188447 
10   -0.286508 
11   -0.01301 
12   0.203056 
13   0.141357 
14   -0.271881 
15   -0.201527 
16   0.150616 
17   0.146792 
18   0.150436 
19   0.16233 
20   0.160466 
21   0.156221 
22   0.155205 
23   0.15682 
24   0.174415 
25   0.176746 
26   0.177223 
27   0.157447 
28   0.174802 
29   0.158997 
30   0.143034 
31   0.146613 
32   0.15869 
33   0.149131 
34   0.149313 
35   0.144961 
36   0.16529 
37   0.148308 
 
$$$$ 
 
