PCCDB-ID:  20739 
public computational chemistry database (PCCDB) project, http://pccdb.org 
 
 28 28  0  0  1  0  0  0  0  0999 V2000 
    2.6821   -1.5242    0.1813 C   0  0  0  0  0  0  0  0  0  0  0  0 
    2.9671    0.6853    1.3328 C   0  0  0  0  0  0  0  0  0  0  0  0 
    2.5039    2.1280   -1.3057 C   0  0  0  0  0  0  0  0  0  0  0  0 
    2.2210   -0.0949   -2.4639 C   0  0  0  0  0  0  0  0  0  0  0  0 
    2.9191    2.7652   -2.6419 C   0  0  0  0  0  0  0  0  0  0  0  0 
    2.6382    0.5510   -3.7952 C   0  0  0  0  0  0  0  0  0  0  0  0 
    2.3633   -0.0204    0.1055 C   0  0  0  0  0  0  0  0  0  0  0  0 
    2.8243    0.6185   -1.2335 C   0  0  2  0  0  0  0  0  0  0  0  0 
    2.2994    2.0432   -3.8411 C   0  0  2  0  0  0  0  0  0  0  0  0 
    2.6712    2.6430   -5.0823 O   0  0  0  0  0  0  0  0  0  0  0  0 
    2.3903   -1.9293    1.1572 H   0  0  0  0  0  0  0  0  0  0  0  0 
    3.7585   -1.7042    0.0583 H   0  0  0  0  0  0  0  0  0  0  0  0 
    2.1561   -2.1047   -0.5823 H   0  0  0  0  0  0  0  0  0  0  0  0 
    2.6599    0.1797    2.2557 H   0  0  0  0  0  0  0  0  0  0  0  0 
    2.6533    1.7302    1.4142 H   0  0  0  0  0  0  0  0  0  0  0  0 
    4.0647    0.6660    1.2966 H   0  0  0  0  0  0  0  0  0  0  0  0 
    1.4217    2.2685   -1.1588 H   0  0  0  0  0  0  0  0  0  0  0  0 
    2.9980    2.6652   -0.4896 H   0  0  0  0  0  0  0  0  0  0  0  0 
    2.5118   -1.1505   -2.4769 H   0  0  0  0  0  0  0  0  0  0  0  0 
    1.1230   -0.0770   -2.3818 H   0  0  0  0  0  0  0  0  0  0  0  0 
    4.0164    2.7232   -2.7392 H   0  0  0  0  0  0  0  0  0  0  0  0 
    2.6408    3.8255   -2.6693 H   0  0  0  0  0  0  0  0  0  0  0  0 
    2.1605    0.0412   -4.6404 H   0  0  0  0  0  0  0  0  0  0  0  0 
    3.7263    0.4364   -3.9300 H   0  0  0  0  0  0  0  0  0  0  0  0 
    1.2684    0.0918    0.1611 H   0  0  0  0  0  0  0  0  0  0  0  0 
    3.9212    0.5076   -1.2891 H   0  0  0  0  0  0  0  0  0  0  0  0 
    1.2083    2.1609   -3.8015 H   0  0  0  0  0  0  0  0  0  0  0  0 
    3.6358    2.5622   -5.1602 H   0  0  0  0  0  0  0  0  0  0  0  0 
  1 11  1  0  0  0  0 
  2 15  1  0  0  0  0 
  2 14  1  0  0  0  0 
  3  8  1  0  0  0  0 
  3 17  1  0  0  0  0 
  3 18  1  0  0  0  0 
  4 20  1  0  0  0  0 
  4  8  1  0  0  0  0 
  5  3  1  0  0  0  0 
  6  4  1  0  0  0  0 
  7 25  1  0  0  0  0 
  7  1  1  0  0  0  0 
  7  2  1  0  0  0  0 
  8 26  1  6  0  0  0 
  8  7  1  0  0  0  0 
  9 27  1  1  0  0  0 
  9  6  1  0  0  0  0 
  9  5  1  0  0  0  0 
 10  9  1  0  0  0  0 
 12  1  1  0  0  0  0 
 13  1  1  0  0  0  0 
 16  2  1  0  0  0  0 
 19  4  1  0  0  0  0 
 21  5  1  0  0  0  0 
 22  5  1  0  0  0  0 
 23  6  1  0  0  0  0 
 24  6  1  0  0  0  0 
 28 10  1  0  0  0  0 
M  END 
>  <HBA> 
1 
 
>  <HBD> 
1 
 
>  <TPSA> 
20.23 
 
>  <cid> 
20739 
 
>  <dipole> 
1.74 
 
>  <excitation_energy_1> 
6.351 
 
>  <excitation_energy_2> 
6.708 
 
>  <excitation_energy_3> 
6.931 
 
>  <excitation_energy_4> 
7.03 
 
>  <homo_energy> 
-6.871 
 
>  <homo_lumo_gap> 
8.972 
 
>  <logP> 
2.193 
 
>  <lumo_energy> 
2.101 
 
>  <melting_point> 
12.64 
 
>  <molecular_refractivity> 
44.42 
 
>  <oscillator_strength_1> 
0.0135 
 
>  <oscillator_strength_2> 
0.0001 
 
>  <oscillator_strength_3> 
0.0074 
 
>  <oscillator_strength_4> 
0.0077 
 
>  <open_babel_can_smiles> 
CC([C@@H]1CC[C@H](CC1)O)C 
 
>  <mulliken_charges> 
28 
1   -0.451898 
2   -0.451892 
3   -0.278121 
4   -0.277977 
5   -0.27848 
6   -0.278535 
7   -0.064415 
8   -0.06245 
9   0.146936 
10   -0.628406 
11   0.139804 
12   0.137673 
13   0.146784 
14   0.139818 
15   0.146767 
16   0.137603 
17   0.127684 
18   0.138417 
19   0.138415 
20   0.127588 
21   0.112713 
22   0.142821 
23   0.142826 
24   0.112759 
25   0.117113 
26   0.107863 
27   0.129174 
28   0.379418 
 
>  <lowdin_charges> 
28 
1   -0.44701 
2   -0.444035 
3   -0.28011 
4   -0.276808 
5   -0.28962 
6   -0.292545 
7   -0.118239 
8   -0.127378 
9   -0.004498 
10   -0.459811 
11   0.148385 
12   0.143442 
13   0.150633 
14   0.148752 
15   0.148115 
16   0.142964 
17   0.136584 
18   0.148873 
19   0.146263 
20   0.136211 
21   0.129699 
22   0.148843 
23   0.151326 
24   0.129905 
25   0.131587 
26   0.127848 
27   0.136866 
28   0.333758 
 
$$$$ 
 
