PCCDB-ID:  65742 
public computational chemistry database (PCCDB) project, http://pccdb.org 
 
 36 37  0  0  1  0  0  0  0  0999 V2000 
    0.9071    0.4719    0.5519 C   0  0  0  0  0  0  0  0  0  0  0  0 
    2.3457    3.1157    0.7887 C   0  0  0  0  0  0  0  0  0  0  0  0 
    4.2411   -2.7729   -5.0418 C   0  0  0  0  0  0  0  0  0  0  0  0 
    4.8891   -4.4014   -1.0652 C   0  0  0  0  0  0  0  0  0  0  0  0 
    3.0321    1.6119   -2.5642 C   0  0  0  0  0  0  0  0  0  0  0  0 
    2.2376    2.4312   -1.5459 C   0  0  0  0  0  0  0  0  0  0  0  0 
    3.5291   -0.7889   -3.1423 C   0  0  0  0  0  0  0  0  0  0  0  0 
    2.3953    0.7346    0.2059 C   0  0  1  0  0  0  0  0  0  0  0  0 
    3.1333    0.1508   -2.1766 C   0  0  0  0  0  0  0  0  0  0  0  0 
    3.6894   -2.1341   -2.8084 C   0  0  0  0  0  0  0  0  0  0  0  0 
    2.8757   -0.2402   -0.8587 C   0  0  0  0  0  0  0  0  0  0  0  0 
    3.0588   -1.5940   -0.5300 C   0  0  0  0  0  0  0  0  0  0  0  0 
    3.4689   -2.5326   -1.4801 C   0  0  0  0  0  0  0  0  0  0  0  0 
    2.7042    2.1147   -0.2012 N   0  0  0  0  0  0  0  0  0  0  0  0 
    2.8317   -2.0171    0.7485 O   0  0  0  0  0  0  0  0  0  0  0  0 
    4.0527   -3.1242   -3.6802 O   0  0  0  0  0  0  0  0  0  0  0  0 
    3.5671   -3.8446   -1.0436 O   0  0  0  0  0  0  0  0  0  0  0  0 
    0.7785   -0.5671    0.8663 H   0  0  0  0  0  0  0  0  0  0  0  0 
    0.2566    0.6489   -0.3115 H   0  0  0  0  0  0  0  0  0  0  0  0 
    0.5714    1.1147    1.3732 H   0  0  0  0  0  0  0  0  0  0  0  0 
    2.7930    4.0766    0.5081 H   0  0  0  0  0  0  0  0  0  0  0  0 
    2.7542    2.8266    1.7641 H   0  0  0  0  0  0  0  0  0  0  0  0 
    1.2583    3.2761    0.9120 H   0  0  0  0  0  0  0  0  0  0  0  0 
    4.4904   -3.7018   -5.5583 H   0  0  0  0  0  0  0  0  0  0  0  0 
    5.0637   -2.0560   -5.1651 H   0  0  0  0  0  0  0  0  0  0  0  0 
    3.3269   -2.3488   -5.4766 H   0  0  0  0  0  0  0  0  0  0  0  0 
    4.8038   -5.4002   -0.6301 H   0  0  0  0  0  0  0  0  0  0  0  0 
    5.5794   -3.7959   -0.4637 H   0  0  0  0  0  0  0  0  0  0  0  0 
    5.2617   -4.4751   -2.0900 H   0  0  0  0  0  0  0  0  0  0  0  0 
    4.0461    2.0301   -2.6311 H   0  0  0  0  0  0  0  0  0  0  0  0 
    2.5830    1.7102   -3.5613 H   0  0  0  0  0  0  0  0  0  0  0  0 
    1.1522    2.2564   -1.6772 H   0  0  0  0  0  0  0  0  0  0  0  0 
    2.4044    3.4998   -1.7241 H   0  0  0  0  0  0  0  0  0  0  0  0 
    3.7086   -0.4502   -4.1569 H   0  0  0  0  0  0  0  0  0  0  0  0 
    2.9751    0.5463    1.1197 H   0  0  0  0  0  0  0  0  0  0  0  0 
    2.9706   -2.9835    0.7278 H   0  0  0  0  0  0  0  0  0  0  0  0 
  1 18  1  0  0  0  0 
  1 20  1  0  0  0  0 
  2 23  1  0  0  0  0 
  2 22  1  0  0  0  0 
  3 16  1  0  0  0  0 
  4 17  1  0  0  0  0 
  4 27  1  0  0  0  0 
  4 28  1  0  0  0  0 
  5  9  1  0  0  0  0 
  5  6  1  0  0  0  0 
  6 14  1  0  0  0  0 
  7 10  2  0  0  0  0 
  7  9  1  0  0  0  0 
  8  1  1  0  0  0  0 
  8 35  1  1  0  0  0 
  9 11  2  0  0  0  0 
 10 13  1  0  0  0  0 
 11 12  1  0  0  0  0 
 11  8  1  0  0  0  0 
 12 15  1  0  0  0  0 
 13 17  1  0  0  0  0 
 13 12  2  0  0  0  0 
 14  8  1  0  0  0  0 
 14  2  1  0  0  0  0 
 16 10  1  0  0  0  0 
 19  1  1  0  0  0  0 
 21  2  1  0  0  0  0 
 24  3  1  0  0  0  0 
 25  3  1  0  0  0  0 
 26  3  1  0  0  0  0 
 29  4  1  0  0  0  0 
 30  5  1  0  0  0  0 
 31  5  1  0  0  0  0 
 32  6  1  0  0  0  0 
 33  6  1  0  0  0  0 
 34  7  1  0  0  0  0 
 36 15  1  0  0  0  0 
M  END 
>  <HBA> 
4 
 
>  <HBD> 
1 
 
>  <TPSA> 
41.93 
 
>  <cid> 
65742 
 
>  <dipole> 
2.27 
 
>  <excitation_energy_1> 
4.798 
 
>  <excitation_energy_2> 
4.932 
 
>  <excitation_energy_3> 
4.973 
 
>  <excitation_energy_4> 
5.151 
 
>  <homo_energy> 
-5.323 
 
>  <homo_lumo_gap> 
5.728 
 
>  <logP> 
1.896 
 
>  <lumo_energy> 
0.405 
 
>  <melting_point> 
88.41 
 
>  <molecular_refractivity> 
70.5 
 
>  <oscillator_strength_1> 
0.016 
 
>  <oscillator_strength_2> 
0.0076 
 
>  <oscillator_strength_3> 
0.0023 
 
>  <oscillator_strength_4> 
0.0023 
 
>  <open_babel_can_smiles> 
COc1c(OC)cc2c(c1O)[C@H](C)N(CC2)C 
 
>  <mulliken_charges> 
36 
1   -0.463717 
2   -0.292324 
3   -0.212203 
4   -0.215626 
5   -0.333899 
6   -0.134394 
7   -0.285797 
8   -0.005903 
9   0.109254 
10   0.358948 
11   0.059431 
12   0.256084 
13   0.251405 
14   -0.396364 
15   -0.664142 
16   -0.519676 
17   -0.554579 
18   0.169406 
19   0.141696 
20   0.138874 
21   0.144856 
22   0.146419 
23   0.121962 
24   0.167765 
25   0.152101 
26   0.155083 
27   0.157916 
28   0.144778 
29   0.173495 
30   0.15775 
31   0.134947 
32   0.118722 
33   0.132274 
34   0.119701 
35   0.146763 
36   0.418994 
 
>  <lowdin_charges> 
36 
1   -0.465915 
2   -0.353324 
3   -0.276636 
4   -0.277513 
5   -0.274473 
6   -0.194587 
7   -0.239328 
8   -0.052767 
9   0.001096 
10   0.083079 
11   -0.056278 
12   0.084193 
13   0.013117 
14   -0.186657 
15   -0.381278 
16   -0.19951 
17   -0.237074 
18   0.163544 
19   0.147439 
20   0.147645 
21   0.147208 
22   0.149017 
23   0.120121 
24   0.162101 
25   0.145423 
26   0.14796 
27   0.154441 
28   0.143235 
29   0.155365 
30   0.156071 
31   0.147051 
32   0.11683 
33   0.143376 
34   0.15772 
35   0.152096 
36   0.357212 
 
$$$$ 
 
