PCCDB-ID:  8924 
public computational chemistry database (PCCDB) project, http://pccdb.org 
 
 44 43  0  0  0  0  0  0  0  0999 V2000 
   -4.9162   -1.5907    3.1515 C   0  0  0  0  0  0  0  0  0  0  0  0 
    1.9271    2.1137    0.2481 C   0  0  0  0  0  0  0  0  0  0  0  0 
   -3.6655   -0.7450    3.4322 C   0  0  0  0  0  0  0  0  0  0  0  0 
    0.4839    2.5684    0.5023 C   0  0  0  0  0  0  0  0  0  0  0  0 
   -5.0151   -2.8920    3.9667 C   0  0  0  0  0  0  0  0  0  0  0  0 
    2.1878    1.6945   -1.2037 C   0  0  0  0  0  0  0  0  0  0  0  0 
   -3.5818    0.5119    2.5569 C   0  0  0  0  0  0  0  0  0  0  0  0 
    0.2190    2.9797    1.9559 C   0  0  0  0  0  0  0  0  0  0  0  0 
   -5.1455   -2.7105    5.4843 C   0  0  0  0  0  0  0  0  0  0  0  0 
    3.6303    1.2520   -1.4579 C   0  0  0  0  0  0  0  0  0  0  0  0 
   -2.3232    1.3467    2.8094 C   0  0  0  0  0  0  0  0  0  0  0  0 
   -1.2180    3.4803    2.2161 C   0  0  0  0  0  0  0  0  0  0  0  0 
   -6.3774   -1.9884    5.8320 N   0  0  0  0  0  0  0  0  0  0  0  0 
    3.8000    0.8161   -2.8499 N   0  0  0  0  0  0  0  0  0  0  0  0 
   -2.3195    2.5475    1.9768 N   0  0  0  0  0  0  0  0  0  0  0  0 
   -4.9325   -1.8506    2.0837 H   0  0  0  0  0  0  0  0  0  0  0  0 
   -5.8175   -0.9839    3.3186 H   0  0  0  0  0  0  0  0  0  0  0  0 
    2.1640    1.2729    0.9170 H   0  0  0  0  0  0  0  0  0  0  0  0 
    2.6156    2.9253    0.5265 H   0  0  0  0  0  0  0  0  0  0  0  0 
   -2.7693   -1.3632    3.2729 H   0  0  0  0  0  0  0  0  0  0  0  0 
   -3.6409   -0.4463    4.4902 H   0  0  0  0  0  0  0  0  0  0  0  0 
   -0.1999    1.7555    0.2168 H   0  0  0  0  0  0  0  0  0  0  0  0 
    0.2471    3.4128   -0.1631 H   0  0  0  0  0  0  0  0  0  0  0  0 
   -4.1273   -3.5095    3.7677 H   0  0  0  0  0  0  0  0  0  0  0  0 
   -5.8868   -3.4604    3.6195 H   0  0  0  0  0  0  0  0  0  0  0  0 
    1.9464    2.5345   -1.8736 H   0  0  0  0  0  0  0  0  0  0  0  0 
    1.5185    0.8724   -1.4885 H   0  0  0  0  0  0  0  0  0  0  0  0 
   -4.4614    1.1482    2.7193 H   0  0  0  0  0  0  0  0  0  0  0  0 
   -3.6092    0.2149    1.4970 H   0  0  0  0  0  0  0  0  0  0  0  0 
    0.9139    3.7844    2.2373 H   0  0  0  0  0  0  0  0  0  0  0  0 
    0.4479    2.1364    2.6222 H   0  0  0  0  0  0  0  0  0  0  0  0 
   -4.2273   -2.2434    5.8846 H   0  0  0  0  0  0  0  0  0  0  0  0 
   -5.2098   -3.7040    5.9449 H   0  0  0  0  0  0  0  0  0  0  0  0 
    3.8635    0.3945   -0.8129 H   0  0  0  0  0  0  0  0  0  0  0  0 
    4.3163    2.0660   -1.1556 H   0  0  0  0  0  0  0  0  0  0  0  0 
   -1.4320    0.7044    2.6727 H   0  0  0  0  0  0  0  0  0  0  0  0 
   -2.3053    1.6749    3.8586 H   0  0  0  0  0  0  0  0  0  0  0  0 
   -1.4029    4.3666    1.5935 H   0  0  0  0  0  0  0  0  0  0  0  0 
   -1.2945    3.8135    3.2602 H   0  0  0  0  0  0  0  0  0  0  0  0 
   -6.2869   -1.0076    5.5716 H   0  0  0  0  0  0  0  0  0  0  0  0 
   -6.5014   -1.9935    6.8432 H   0  0  0  0  0  0  0  0  0  0  0  0 
    3.6798    1.6160   -3.4711 H   0  0  0  0  0  0  0  0  0  0  0  0 
    4.7555    0.4931   -2.9955 H   0  0  0  0  0  0  0  0  0  0  0  0 
   -2.3392    2.2792    0.9943 H   0  0  0  0  0  0  0  0  0  0  0  0 
  1 17  1  0  0  0  0 
  1  3  1  0  0  0  0 
  1  5  1  0  0  0  0 
  2  4  1  0  0  0  0 
  2 19  1  0  0  0  0 
  2 18  1  0  0  0  0 
  3 21  1  0  0  0  0 
  4  8  1  0  0  0  0 
  5  9  1  0  0  0  0 
  6  2  1  0  0  0  0 
  7 28  1  0  0  0  0 
  7 11  1  0  0  0  0 
  7  3  1  0  0  0  0 
  8 12  1  0  0  0  0 
  8 30  1  0  0  0  0 
  8 31  1  0  0  0  0 
  9 13  1  0  0  0  0 
  9 32  1  0  0  0  0 
  9 33  1  0  0  0  0 
 10  6  1  0  0  0  0 
 10 35  1  0  0  0  0 
 10 34  1  0  0  0  0 
 11 37  1  0  0  0  0 
 12 39  1  0  0  0  0 
 13 41  1  0  0  0  0 
 14 10  1  0  0  0  0 
 15 12  1  0  0  0  0 
 15 11  1  0  0  0  0 
 16  1  1  0  0  0  0 
 20  3  1  0  0  0  0 
 22  4  1  0  0  0  0 
 23  4  1  0  0  0  0 
 24  5  1  0  0  0  0 
 25  5  1  0  0  0  0 
 26  6  1  0  0  0  0 
 27  6  1  0  0  0  0 
 29  7  1  0  0  0  0 
 36 11  1  0  0  0  0 
 38 12  1  0  0  0  0 
 40 13  1  0  0  0  0 
 42 14  1  0  0  0  0 
 43 14  1  0  0  0  0 
 44 15  1  0  0  0  0 
M  END 
>  <HBA> 
3 
 
>  <HBD> 
3 
 
>  <TPSA> 
64.07 
 
>  <cid> 
8924 
 
>  <dipole> 
2.89 
 
>  <excitation_energy_1> 
5.258 
 
>  <excitation_energy_2> 
5.406 
 
>  <excitation_energy_3> 
5.573 
 
>  <excitation_energy_4> 
5.584 
 
>  <homo_energy> 
-5.709 
 
>  <homo_lumo_gap> 
7.619 
 
>  <logP> 
3.406 
 
>  <lumo_energy> 
1.91 
 
>  <melting_point> 
105.13 
 
>  <molecular_refractivity> 
68.01 
 
>  <oscillator_strength_1> 
0.0122 
 
>  <oscillator_strength_2> 
0.0089 
 
>  <oscillator_strength_3> 
0.0123 
 
>  <oscillator_strength_4> 
0.0122 
 
>  <open_babel_can_smiles> 
NCCCCCCNCCCCCCN 
 
>  <mulliken_charges> 
44 
1   -0.265988 
2   -0.255171 
3   -0.25897 
4   -0.25515 
5   -0.241321 
6   -0.247412 
7   -0.259632 
8   -0.263676 
9   -0.142397 
10   -0.133447 
11   -0.115223 
12   -0.134988 
13   -0.717096 
14   -0.715842 
15   -0.549787 
16   0.130915 
17   0.134938 
18   0.129146 
19   0.127244 
20   0.127759 
21   0.127852 
22   0.123836 
23   0.126564 
24   0.121975 
25   0.14222 
26   0.121025 
27   0.145783 
28   0.14306 
29   0.122903 
30   0.125757 
31   0.133378 
32   0.114261 
33   0.13654 
34   0.136923 
35   0.109144 
36   0.111251 
37   0.131176 
38   0.13235 
39   0.13421 
40   0.29566 
41   0.29462 
42   0.290206 
43   0.294132 
44   0.291272 
 
>  <lowdin_charges> 
44 
1   -0.277722 
2   -0.274928 
3   -0.276508 
4   -0.278982 
5   -0.281229 
6   -0.280131 
7   -0.276395 
8   -0.297518 
9   -0.207786 
10   -0.205894 
11   -0.201872 
12   -0.204789 
13   -0.557628 
14   -0.558327 
15   -0.362218 
16   0.141061 
17   0.140569 
18   0.139349 
19   0.138113 
20   0.137916 
21   0.134762 
22   0.135773 
23   0.137532 
24   0.139283 
25   0.150374 
26   0.135311 
27   0.148652 
28   0.146912 
29   0.134069 
30   0.142641 
31   0.140565 
32   0.11616 
33   0.142451 
34   0.140921 
35   0.115444 
36   0.1153 
37   0.136356 
38   0.140844 
39   0.140161 
40   0.249209 
41   0.251687 
42   0.25049 
43   0.252066 
44   0.247955 
 
$$$$ 
 
