PCCDB-ID:  19702 
public computational chemistry database (PCCDB) project, http://pccdb.org 
 
 13 13  0  0  0  0  0  0  0  0999 V2000 
   -0.3268    1.1838   -0.0511 C   0  0  0  0  0  0  0  0  0  0  0  0 
   -1.2587   -0.0624    0.0216 C   0  0  0  0  0  0  0  0  0  0  0  0 
    1.0137   -0.5843    0.0327 C   0  0  0  0  0  0  0  0  0  0  0  0 
    1.0556    0.6860   -0.0771 N   0  0  0  0  0  0  0  0  0  0  0  0 
   -0.7150   -2.4352    0.2783 N   0  0  0  0  0  0  0  0  0  0  0  0 
   -0.2771   -1.1513    0.1269 N   0  0  0  0  0  0  0  0  0  0  0  0 
    2.0697   -1.3980    0.0596 O   0  0  0  0  0  0  0  0  0  0  0  0 
    0.1496   -3.2861    0.3582 O   0  0  0  0  0  0  0  0  0  0  0  0 
   -0.4621    1.8414    0.8151 H   0  0  0  0  0  0  0  0  0  0  0  0 
   -0.5214    1.7836   -0.9463 H   0  0  0  0  0  0  0  0  0  0  0  0 
   -1.8688   -0.1918   -0.8773 H   0  0  0  0  0  0  0  0  0  0  0  0 
   -1.9176   -0.0624    0.8937 H   0  0  0  0  0  0  0  0  0  0  0  0 
    2.8477   -0.8144   -0.0152 H   0  0  0  0  0  0  0  0  0  0  0  0 
  1  2  1  0  0  0  0 
  1  9  1  0  0  0  0 
  2  6  1  0  0  0  0 
  2 12  1  0  0  0  0 
  3  7  1  0  0  0  0 
  3  6  1  0  0  0  0 
  4  1  1  0  0  0  0 
  4  3  2  0  0  0  0 
  5  8  2  0  0  0  0 
  6  5  1  0  0  0  0 
 10  1  1  0  0  0  0 
 11  2  1  0  0  0  0 
 13  7  1  0  0  0  0 
M  END 
>  <HBA> 
5 
 
>  <HBD> 
1 
 
>  <TPSA> 
61.77 
 
>  <cid> 
19702 
 
>  <dipole> 
3.22 
 
>  <excitation_energy_1> 
2.873 
 
>  <excitation_energy_2> 
4.633 
 
>  <excitation_energy_3> 
5.243 
 
>  <excitation_energy_4> 
5.874 
 
>  <homo_energy> 
-6.403 
 
>  <homo_lumo_gap> 
4.675 
 
>  <logP> 
-0.04 
 
>  <lumo_energy> 
-1.728 
 
>  <melting_point> 
78.6 
 
>  <molecular_refractivity> 
33.28 
 
>  <oscillator_strength_1> 
0.0015 
 
>  <oscillator_strength_2> 
0.1773 
 
>  <oscillator_strength_3> 
0.001 
 
>  <oscillator_strength_4> 
0.0092 
 
>  <open_babel_can_smiles> 
OC1=NCCN1N=O 
 
>  <mulliken_charges> 
13 
1   -0.172471 
2   -0.13567 
3   0.727813 
4   -0.475396 
5   0.158033 
6   -0.345778 
7   -0.566693 
8   -0.313077 
9   0.166724 
10   0.166689 
11   0.18091 
12   0.182127 
13   0.426789 
 
>  <lowdin_charges> 
13 
1   -0.200109 
2   -0.203099 
3   0.150657 
4   -0.251514 
5   0.073402 
6   -0.059562 
7   -0.318534 
8   -0.210524 
9   0.156402 
10   0.157466 
11   0.163285 
12   0.165787 
13   0.376344 
 
$$$$ 
 
