PCCDB-ID:  16358 
public computational chemistry database (PCCDB) project, http://pccdb.org 
 
 19 20  0  0  0  0  0  0  0  0999 V2000 
    1.0179    0.2446   -0.1773 C   0  0  0  0  0  0  0  0  0  0  0  0 
    4.8710   -3.3294   -0.0059 C   0  0  0  0  0  0  0  0  0  0  0  0 
    3.4838   -3.5124   -0.0271 C   0  0  0  0  0  0  0  0  0  0  0  0 
    5.4040   -2.0374   -0.0295 C   0  0  0  0  0  0  0  0  0  0  0  0 
    2.5916   -2.4311   -0.0729 C   0  0  0  0  0  0  0  0  0  0  0  0 
    4.5303   -0.9566   -0.0743 C   0  0  0  0  0  0  0  0  0  0  0  0 
    3.1337   -1.1514   -0.0970 C   0  0  0  0  0  0  0  0  0  0  0  0 
    4.7771    0.4924   -0.1097 C   0  0  0  0  0  0  0  0  0  0  0  0 
    3.3517    1.1407   -0.1561 C   0  0  0  0  0  0  0  0  0  0  0  0 
    2.4568    0.0786   -0.1442 N   0  0  0  0  0  0  0  0  0  0  0  0 
    5.8158    1.1160   -0.1057 O   0  0  0  0  0  0  0  0  0  0  0  0 
    3.0736    2.3197   -0.1941 O   0  0  0  0  0  0  0  0  0  0  0  0 
    0.5880   -0.2352   -1.0643 H   0  0  0  0  0  0  0  0  0  0  0  0 
    0.8176    1.3169   -0.2142 H   0  0  0  0  0  0  0  0  0  0  0  0 
    0.5528   -0.1808    0.7197 H   0  0  0  0  0  0  0  0  0  0  0  0 
    5.5291   -4.1919    0.0296 H   0  0  0  0  0  0  0  0  0  0  0  0 
    3.0802   -4.5212   -0.0071 H   0  0  0  0  0  0  0  0  0  0  0  0 
    6.4761   -1.8633   -0.0145 H   0  0  0  0  0  0  0  0  0  0  0  0 
    1.5193   -2.5968   -0.0885 H   0  0  0  0  0  0  0  0  0  0  0  0 
  1 10  1  0  0  0  0 
  1 15  1  0  0  0  0 
  2 16  1  0  0  0  0 
  3 17  1  0  0  0  0 
  3  2  1  0  0  0  0 
  4 18  1  0  0  0  0 
  4  2  2  0  0  0  0 
  5  3  2  0  0  0  0 
  6  4  1  0  0  0  0 
  7  6  2  0  0  0  0 
  7  5  1  0  0  0  0 
  8 11  2  0  0  0  0 
  8  6  1  0  0  0  0 
  9 10  1  0  0  0  0 
  9  8  1  0  0  0  0 
 10  7  1  0  0  0  0 
 12  9  2  0  0  0  0 
 13  1  1  0  0  0  0 
 14  1  1  0  0  0  0 
 19  5  1  0  0  0  0 
M  END 
>  <HBA> 
3 
 
>  <HBD> 
0 
 
>  <TPSA> 
37.38 
 
>  <cid> 
16358 
 
>  <dipole> 
5.9 
 
>  <excitation_energy_1> 
2.694 
 
>  <excitation_energy_2> 
2.937 
 
>  <excitation_energy_3> 
4.339 
 
>  <excitation_energy_4> 
4.355 
 
>  <homo_energy> 
-6.362 
 
>  <homo_lumo_gap> 
3.769 
 
>  <logP> 
0.911 
 
>  <lumo_energy> 
-2.593 
 
>  <melting_point> 
93.19 
 
>  <molecular_refractivity> 
47.06 
 
>  <oscillator_strength_1> 
0.0 
 
>  <oscillator_strength_2> 
0.0163 
 
>  <oscillator_strength_3> 
0.0544 
 
>  <oscillator_strength_4> 
0.0001 
 
>  <open_babel_can_smiles> 
O=C1c2ccccc2N(C1=O)C 
 
>  <mulliken_charges> 
19 
1   -0.334559 
2   -0.140625 
3   -0.126914 
4   -0.172026 
5   -0.182169 
6   0.057821 
7   0.332996 
8   0.321364 
9   0.558848 
10   -0.562523 
11   -0.430675 
12   -0.466891 
13   0.170979 
14   0.206144 
15   0.171072 
16   0.142387 
17   0.14584 
18   0.164285 
19   0.144645 
 
>  <lowdin_charges> 
19 
1   -0.351101 
2   -0.173714 
3   -0.118924 
4   -0.107847 
5   -0.192193 
6   -0.080308 
7   0.068806 
8   0.128859 
9   0.130833 
10   -0.075234 
11   -0.180708 
12   -0.226838 
13   0.160581 
14   0.185323 
15   0.160562 
16   0.165883 
17   0.165498 
18   0.17496 
19   0.165562 
 
$$$$ 
 
