PCCDB-ID:  51134 
public computational chemistry database (PCCDB) project, http://pccdb.org 
 
 29 30  0  0  1  0  0  0  0  0999 V2000 
    3.3001    1.8279   -0.1912 C   0  0  0  0  0  0  0  0  0  0  0  0 
    3.4150    0.4270   -0.3699 C   0  0  0  0  0  0  0  0  0  0  0  0 
    2.0577    2.4211   -0.1776 C   0  0  0  0  0  0  0  0  0  0  0  0 
    2.2916   -0.3522   -0.5308 C   0  0  0  0  0  0  0  0  0  0  0  0 
   -0.4194    2.2195   -0.3340 C   0  0  0  0  0  0  0  0  0  0  0  0 
   -1.5484    1.4511   -0.4922 C   0  0  0  0  0  0  0  0  0  0  0  0 
   -0.1826   -0.5419   -0.6915 C   0  0  0  0  0  0  0  0  0  0  0  0 
   -3.7942   -0.2128   -1.4503 C   0  0  0  0  0  0  0  0  0  0  0  0 
    0.8792    1.6463   -0.3409 C   0  0  0  0  0  0  0  0  0  0  0  0 
    0.9938    0.2293   -0.5207 C   0  0  0  0  0  0  0  0  0  0  0  0 
   -1.4360    0.0441   -0.6784 C   0  0  0  0  0  0  0  0  0  0  0  0 
   -4.7584    0.3791   -0.4255 C   0  0  1  0  0  0  0  0  0  0  0  0 
   -5.7980    1.5546   -2.0609 N   0  0  0  0  0  0  0  0  0  0  0  0 
   -2.5979   -0.7548   -0.7944 N   0  0  0  0  0  0  0  0  0  0  0  0 
   -5.7009    1.2051   -0.6695 N   0  0  0  0  0  0  0  0  0  0  0  0 
   -4.5747   -0.0382    0.8452 O   0  0  0  0  0  0  0  0  0  0  0  0 
    4.1955    2.4303   -0.0656 H   0  0  0  0  0  0  0  0  0  0  0  0 
    4.3996   -0.0331   -0.3798 H   0  0  0  0  0  0  0  0  0  0  0  0 
    1.9611    3.4958   -0.0404 H   0  0  0  0  0  0  0  0  0  0  0  0 
    2.3835   -1.4273   -0.6677 H   0  0  0  0  0  0  0  0  0  0  0  0 
   -0.5177    3.2933   -0.1938 H   0  0  0  0  0  0  0  0  0  0  0  0 
   -2.5272    1.9193   -0.4682 H   0  0  0  0  0  0  0  0  0  0  0  0 
   -0.0871   -1.6172   -0.8355 H   0  0  0  0  0  0  0  0  0  0  0  0 
   -3.5655    0.5571   -2.1965 H   0  0  0  0  0  0  0  0  0  0  0  0 
   -4.2876   -1.0362   -1.9814 H   0  0  0  0  0  0  0  0  0  0  0  0 
   -6.2203    0.7723   -2.5682 H   0  0  0  0  0  0  0  0  0  0  0  0 
   -6.4996    2.2915   -2.0873 H   0  0  0  0  0  0  0  0  0  0  0  0 
   -2.3758   -1.6940   -1.1016 H   0  0  0  0  0  0  0  0  0  0  0  0 
   -3.7425   -0.5594    0.8217 H   0  0  0  0  0  0  0  0  0  0  0  0 
  1  3  1  0  0  0  0 
  1 17  1  0  0  0  0 
  2  1  2  0  0  0  0 
  3 19  1  0  0  0  0 
  4 10  2  0  0  0  0 
  4  2  1  0  0  0  0 
  5 21  1  0  0  0  0 
  6 22  1  0  0  0  0 
  6  5  2  0  0  0  0 
  7 11  2  0  0  0  0 
  7 10  1  0  0  0  0 
  8 14  1  0  0  0  0 
  8 12  1  0  0  0  0 
  9  5  1  0  0  0  0 
  9  3  2  0  0  0  0 
 10  9  1  0  0  0  0 
 11  6  1  0  0  0  0 
 12 15  1  6  0  0  0 
 12 16  1  0  0  0  0 
 13 15  1  0  0  0  0 
 14 11  1  0  0  0  0 
 18  2  1  0  0  0  0 
 20  4  1  0  0  0  0 
 23  7  1  0  0  0  0 
 24  8  1  0  0  0  0 
 25  8  1  0  0  0  0 
 26 13  1  0  0  0  0 
 27 13  1  0  0  0  0 
 28 14  1  0  0  0  0 
 29 16  1  0  0  0  0 
M  RAD  2  12   2  15   2 
M  END 
>  <HBA> 
4 
 
>  <HBD> 
3 
 
>  <TPSA> 
67.15 
 
>  <cid> 
51134 
 
>  <dipole> 
3.79 
 
>  <excitation_energy_1> 
3.921 
 
>  <excitation_energy_2> 
4.258 
 
>  <excitation_energy_3> 
4.401 
 
>  <excitation_energy_4> 
4.571 
 
>  <homo_energy> 
-5.445 
 
>  <homo_lumo_gap> 
4.425 
 
>  <logP> 
2.406 
 
>  <lumo_energy> 
-1.02 
 
>  <melting_point> 
185.36 
 
>  <molecular_refractivity> 
63.77 
 
>  <oscillator_strength_1> 
0.0556 
 
>  <oscillator_strength_2> 
0.0084 
 
>  <oscillator_strength_3> 
0.0186 
 
>  <oscillator_strength_4> 
0.0039 
 
>  <open_babel_can_smiles> 
N[N][C](CNc1ccc2c(c1)cccc2)O 
 
>  <mulliken_charges> 
29 
1   -0.138935 
2   -0.134963 
3   -0.190815 
4   -0.195034 
5   -0.208046 
6   -0.176281 
7   -0.274223 
8   -0.243901 
9   0.139298 
10   0.141585 
11   0.334418 
12   0.528142 
13   -0.602188 
14   -0.704576 
15   -0.365948 
16   -0.595664 
17   0.12895 
18   0.129238 
19   0.130364 
20   0.125093 
21   0.137927 
22   0.164126 
23   0.116464 
24   0.208693 
25   0.167392 
26   0.300577 
27   0.324928 
28   0.326204 
29   0.427174 
 
>  <lowdin_charges> 
29 
1   -0.166833 
2   -0.15441 
3   -0.15033 
4   -0.161861 
5   -0.139486 
6   -0.187651 
7   -0.20359 
8   -0.240672 
9   -0.011859 
10   0.008988 
11   0.048734 
12   0.083303 
13   -0.473538 
14   -0.311451 
15   -0.180046 
16   -0.364403 
17   0.158928 
18   0.157927 
19   0.156005 
20   0.153495 
21   0.159962 
22   0.175021 
23   0.149705 
24   0.178004 
25   0.165926 
26   0.251266 
27   0.266276 
28   0.276449 
29   0.35614 
 
$$$$ 
 
