PCCDB-ID:  31337 
public computational chemistry database (PCCDB) project, http://pccdb.org 
 
 19 18  0  0  0  0  0  0  0  0999 V2000 
    0.2259    0.0854   -0.0774 C   0  0  0  0  0  0  0  0  0  0  0  0 
    0.4418    0.2033    2.4731 C   0  0  0  0  0  0  0  0  0  0  0  0 
    0.5924    2.3485    1.0630 C   0  0  0  0  0  0  0  0  0  0  0  0 
   -0.0367    0.9396    1.1957 C   0  0  0  0  0  0  0  0  0  0  0  0 
   -1.5506    1.0918    1.2790 N   0  0  0  0  0  0  0  0  0  0  0  0 
    1.6019   -0.2416   -0.2060 O   0  0  0  0  0  0  0  0  0  0  0  0 
    1.8655    0.1335    2.5287 O   0  0  0  0  0  0  0  0  0  0  0  0 
    1.9969    2.2692    0.8328 O   0  0  0  0  0  0  0  0  0  0  0  0 
   -2.0611    2.0608    0.7228 O   0  0  0  0  0  0  0  0  0  0  0  0 
   -2.1736    0.2082    1.8637 O   0  0  0  0  0  0  0  0  0  0  0  0 
   -0.1426    0.6291   -0.9590 H   0  0  0  0  0  0  0  0  0  0  0  0 
   -0.3214   -0.8588    0.0003 H   0  0  0  0  0  0  0  0  0  0  0  0 
   -0.0052   -0.7948    2.5177 H   0  0  0  0  0  0  0  0  0  0  0  0 
    0.1207    0.7561    3.3609 H   0  0  0  0  0  0  0  0  0  0  0  0 
    0.3706    2.9394    1.9632 H   0  0  0  0  0  0  0  0  0  0  0  0 
    0.1588    2.8670    0.2077 H   0  0  0  0  0  0  0  0  0  0  0  0 
    2.0672    0.6196   -0.2544 H   0  0  0  0  0  0  0  0  0  0  0  0 
    2.1268   -0.3921    1.7463 H   0  0  0  0  0  0  0  0  0  0  0  0 
    2.3609    1.7958    1.6089 H   0  0  0  0  0  0  0  0  0  0  0  0 
  1 12  1  0  0  0  0 
  1  4  1  0  0  0  0 
  2 13  1  0  0  0  0 
  2  7  1  0  0  0  0 
  2 14  1  0  0  0  0 
  3  4  1  0  0  0  0 
  3 15  1  0  0  0  0 
  4  5  1  0  0  0  0 
  4  2  1  0  0  0  0 
  5 10  2  0  0  0  0 
  6  1  1  0  0  0  0 
  8  3  1  0  0  0  0 
  8 19  1  0  0  0  0 
  9  5  2  0  0  0  0 
 11  1  1  0  0  0  0 
 16  3  1  0  0  0  0 
 17  6  1  0  0  0  0 
 18  7  1  0  0  0  0 
M  END 
>  <HBA> 
3 
 
>  <HBD> 
3 
 
>  <TPSA> 
106.51 
 
>  <cid> 
31337 
 
>  <dipole> 
1.38 
 
>  <excitation_energy_1> 
4.081 
 
>  <excitation_energy_2> 
4.295 
 
>  <excitation_energy_3> 
4.631 
 
>  <excitation_energy_4> 
4.78 
 
>  <homo_energy> 
-7.872 
 
>  <homo_lumo_gap> 
5.589 
 
>  <logP> 
-1.498 
 
>  <lumo_energy> 
-2.283 
 
>  <melting_point> 
72.4 
 
>  <molecular_refractivity> 
32.97 
 
>  <oscillator_strength_1> 
0.0002 
 
>  <oscillator_strength_2> 
0.0005 
 
>  <oscillator_strength_3> 
0.0021 
 
>  <oscillator_strength_4> 
0.0382 
 
>  <open_babel_can_smiles> 
OCC(N(=O)=O)(CO)CO 
 
>  <mulliken_charges> 
19 
1   -0.034236 
2   -0.045687 
3   -0.044468 
4   0.034739 
5   0.457408 
6   -0.631226 
7   -0.635621 
8   -0.638767 
9   -0.370706 
10   -0.37121 
11   0.161711 
12   0.176965 
13   0.173252 
14   0.1695 
15   0.153257 
16   0.187743 
17   0.420185 
18   0.417863 
19   0.419295 
 
>  <lowdin_charges> 
19 
1   -0.135125 
2   -0.141617 
3   -0.143764 
4   -0.012853 
5   0.297455 
6   -0.458772 
7   -0.463078 
8   -0.466299 
9   -0.233651 
10   -0.236677 
11   0.150812 
12   0.162905 
13   0.157179 
14   0.16118 
15   0.147669 
16   0.170192 
17   0.348263 
18   0.348091 
19   0.348091 
 
$$$$ 
 
