PCCDB-ID:  18460 
public computational chemistry database (PCCDB) project, http://pccdb.org 
 
 19 18  0  0  0  0  0  0  0  0999 V2000 
    0.9388   -0.0041   -0.0399 C   0  0  0  0  0  0  0  0  0  0  0  0 
    2.4707   -0.0101   -0.0384 C   0  0  0  0  0  0  0  0  0  0  0  0 
    3.0615    0.2128   -1.4379 C   0  0  0  0  0  0  0  0  0  0  0  0 
    4.5918    0.2035   -1.4179 C   0  0  0  0  0  0  0  0  0  0  0  0 
    6.9493    0.4171   -2.7689 N   0  0  0  0  0  0  0  0  0  0  0  0 
    4.9382   -0.6905   -3.9050 O   0  0  0  0  0  0  0  0  0  0  0  0 
    4.9448    1.8383   -3.4929 O   0  0  0  0  0  0  0  0  0  0  0  0 
    5.2745    0.4711   -3.0733 S   0  0  0  0  0  0  0  0  0  0  0  0 
    0.5419   -0.1632    0.9688 H   0  0  0  0  0  0  0  0  0  0  0  0 
    0.5402   -0.7960   -0.6850 H   0  0  0  0  0  0  0  0  0  0  0  0 
    0.5468    0.9519   -0.4068 H   0  0  0  0  0  0  0  0  0  0  0  0 
    2.8342   -0.9664    0.3629 H   0  0  0  0  0  0  0  0  0  0  0  0 
    2.8408    0.7695    0.6420 H   0  0  0  0  0  0  0  0  0  0  0  0 
    2.7152    1.1720   -1.8414 H   0  0  0  0  0  0  0  0  0  0  0  0 
    2.7079   -0.5681   -2.1218 H   0  0  0  0  0  0  0  0  0  0  0  0 
    4.9948   -0.7544   -1.0752 H   0  0  0  0  0  0  0  0  0  0  0  0 
    5.0013    1.0003   -0.7894 H   0  0  0  0  0  0  0  0  0  0  0  0 
    7.3577   -0.3443   -3.3084 H   0  0  0  0  0  0  0  0  0  0  0  0 
    7.3624    1.3078   -3.0400 H   0  0  0  0  0  0  0  0  0  0  0  0 
  1  2  1  0  0  0  0 
  1  9  1  0  0  0  0 
  2 12  1  0  0  0  0 
  2 13  1  0  0  0  0 
  3  4  1  0  0  0  0 
  3  2  1  0  0  0  0 
  4 16  1  0  0  0  0 
  4 17  1  0  0  0  0 
  6  8  2  0  0  0  0 
  7  8  2  0  0  0  0 
  8  5  1  0  0  0  0 
  8  4  1  0  0  0  0 
 10  1  1  0  0  0  0 
 11  1  1  0  0  0  0 
 14  3  1  0  0  0  0 
 15  3  1  0  0  0  0 
 18  5  1  0  0  0  0 
 19  5  1  0  0  0  0 
M  END 
>  <HBA> 
3 
 
>  <HBD> 
1 
 
>  <TPSA> 
68.54 
 
>  <cid> 
18460 
 
>  <dipole> 
3.19 
 
>  <excitation_energy_1> 
6.981 
 
>  <excitation_energy_2> 
7.331 
 
>  <excitation_energy_3> 
7.501 
 
>  <excitation_energy_4> 
7.743 
 
>  <homo_energy> 
-7.902 
 
>  <homo_lumo_gap> 
9.391 
 
>  <logP> 
1.856 
 
>  <lumo_energy> 
1.488 
 
>  <melting_point> 
58.65 
 
>  <molecular_refractivity> 
33.01 
 
>  <oscillator_strength_1> 
0.0455 
 
>  <oscillator_strength_2> 
0.0063 
 
>  <oscillator_strength_3> 
0.1101 
 
>  <oscillator_strength_4> 
0.0 
 
>  <open_babel_can_smiles> 
CCCCS(=O)(=O)N 
 
>  <mulliken_charges> 
19 
1   -0.442871 
2   -0.253459 
3   -0.27604 
4   -0.446103 
5   -0.832871 
6   -0.535059 
7   -0.53516 
8   1.163365 
9   0.147705 
10   0.149271 
11   0.149264 
12   0.137275 
13   0.137318 
14   0.170381 
15   0.170291 
16   0.192487 
17   0.192543 
18   0.355833 
19   0.355831 
 
>  <lowdin_charges> 
19 
1   -0.443535 
2   -0.271109 
3   -0.281043 
4   -0.421077 
5   -0.706461 
6   -0.601903 
7   -0.601393 
8   1.302623 
9   0.152281 
10   0.151684 
11   0.150705 
12   0.142029 
13   0.14308 
14   0.160522 
15   0.161499 
16   0.180687 
17   0.181731 
18   0.300294 
19   0.299386 
 
$$$$ 
 
