PCCDB-ID:  7949 
public computational chemistry database (PCCDB) project, http://pccdb.org 
 
 20 20  0  0  0  0  0  0  0  0999 V2000 
    1.0332    0.0261   -0.0463 C   0  0  0  0  0  0  0  0  0  0  0  0 
    5.4226    2.5516   -0.0567 C   0  0  0  0  0  0  0  0  0  0  0  0 
    3.2582    1.2360   -0.0573 C   0  0  0  0  0  0  0  0  0  0  0  0 
    3.2502   -1.1736   -0.1243 C   0  0  0  0  0  0  0  0  0  0  0  0 
    5.3453    0.0321   -0.1288 C   0  0  0  0  0  0  0  0  0  0  0  0 
    2.5454    0.0315   -0.0775 C   0  0  0  0  0  0  0  0  0  0  0  0 
    4.6578    1.2471   -0.0824 C   0  0  0  0  0  0  0  0  0  0  0  0 
    4.6531   -1.1883   -0.1508 C   0  0  0  0  0  0  0  0  0  0  0  0 
    5.3497   -2.3992   -0.2601 N   0  0  0  0  0  0  0  0  0  0  0  0 
    0.6317    1.0441   -0.0272 H   0  0  0  0  0  0  0  0  0  0  0  0 
    0.6521   -0.4995    0.8385 H   0  0  0  0  0  0  0  0  0  0  0  0 
    0.6162   -0.4815   -0.9250 H   0  0  0  0  0  0  0  0  0  0  0  0 
    4.7449    3.4108   -0.0370 H   0  0  0  0  0  0  0  0  0  0  0  0 
    6.0679    2.6549   -0.9381 H   0  0  0  0  0  0  0  0  0  0  0  0 
    6.0718    2.6187    0.8255 H   0  0  0  0  0  0  0  0  0  0  0  0 
    2.7159    2.1781   -0.0200 H   0  0  0  0  0  0  0  0  0  0  0  0 
    2.7069   -2.1174   -0.1444 H   0  0  0  0  0  0  0  0  0  0  0  0 
    6.4342    0.0273   -0.1524 H   0  0  0  0  0  0  0  0  0  0  0  0 
    4.8511   -3.2042    0.0994 H   0  0  0  0  0  0  0  0  0  0  0  0 
    6.2977   -2.3714    0.0957 H   0  0  0  0  0  0  0  0  0  0  0  0 
  1 10  1  0  0  0  0 
  1 11  1  0  0  0  0 
  2 13  1  0  0  0  0 
  2 15  1  0  0  0  0 
  3 16  1  0  0  0  0 
  4  6  2  0  0  0  0 
  5  7  1  0  0  0  0 
  6  3  1  0  0  0  0 
  6  1  1  0  0  0  0 
  7  3  2  0  0  0  0 
  7  2  1  0  0  0  0 
  8  5  2  0  0  0  0 
  8  4  1  0  0  0  0 
  9  8  1  0  0  0  0 
  9 20  1  0  0  0  0 
  9 19  1  0  0  0  0 
 12  1  1  0  0  0  0 
 14  2  1  0  0  0  0 
 17  4  1  0  0  0  0 
 18  5  1  0  0  0  0 
M  END 
>  <HBA> 
1 
 
>  <HBD> 
1 
 
>  <TPSA> 
26.02 
 
>  <cid> 
7949 
 
>  <dipole> 
1.52 
 
>  <excitation_energy_1> 
4.598 
 
>  <excitation_energy_2> 
4.692 
 
>  <excitation_energy_3> 
5.369 
 
>  <excitation_energy_4> 
5.428 
 
>  <homo_energy> 
-5.276 
 
>  <homo_lumo_gap> 
5.538 
 
>  <logP> 
2.467 
 
>  <lumo_energy> 
0.261 
 
>  <melting_point> 
62.15 
 
>  <molecular_refractivity> 
40.78 
 
>  <oscillator_strength_1> 
0.0476 
 
>  <oscillator_strength_2> 
0.0026 
 
>  <oscillator_strength_3> 
0.0198 
 
>  <oscillator_strength_4> 
0.0005 
 
>  <open_babel_can_smiles> 
Cc1cc(C)cc(c1)N 
 
>  <mulliken_charges> 
20 
1   -0.531438 
2   -0.531495 
3   -0.253485 
4   -0.230718 
5   -0.231076 
6   0.183325 
7   0.183694 
8   0.316201 
9   -0.789149 
10   0.152987 
11   0.157321 
12   0.15937 
13   0.15294 
14   0.159379 
15   0.15732 
16   0.105167 
17   0.103526 
18   0.103599 
19   0.316269 
20   0.316262 
 
>  <lowdin_charges> 
20 
1   -0.442493 
2   -0.44249 
3   -0.211326 
4   -0.2173 
5   -0.214479 
6   0.013017 
7   0.011946 
8   0.062567 
9   -0.491877 
10   0.15472 
11   0.158415 
12   0.159563 
13   0.15581 
14   0.159255 
15   0.158139 
16   0.148276 
17   0.147337 
18   0.145122 
19   0.273754 
20   0.272044 
 
$$$$ 
 
