PCCDB-ID:  29246 
public computational chemistry database (PCCDB) project, http://pccdb.org 
 
 28 30  0  0  0  0  0  0  0  0999 V2000 
    0.9304   -0.0901   -0.0878 C   0  0  0  0  0  0  0  0  0  0  0  0 
    4.2101   -3.1000    2.4533 C   0  0  0  0  0  0  0  0  0  0  0  0 
    4.2363    2.9398    2.4194 C   0  0  0  0  0  0  0  0  0  0  0  0 
    3.5028   -3.5437    1.3318 C   0  0  0  0  0  0  0  0  0  0  0  0 
    3.5238    3.3795    1.3003 C   0  0  0  0  0  0  0  0  0  0  0  0 
    4.3472   -1.7337    2.7172 C   0  0  0  0  0  0  0  0  0  0  0  0 
    4.3640    1.5744    2.6971 C   0  0  0  0  0  0  0  0  0  0  0  0 
    2.9080   -2.6257    0.4568 C   0  0  0  0  0  0  0  0  0  0  0  0 
    2.9139    2.4551    0.4403 C   0  0  0  0  0  0  0  0  0  0  0  0 
    3.7633   -0.8198    1.8405 C   0  0  0  0  0  0  0  0  0  0  0  0 
    3.7686    0.6540    1.8352 C   0  0  0  0  0  0  0  0  0  0  0  0 
    3.0392   -1.2706    0.7218 C   0  0  0  0  0  0  0  0  0  0  0  0 
    3.0384    1.1005    0.7175 C   0  0  0  0  0  0  0  0  0  0  0  0 
    2.4657   -0.0880   -0.0531 C   0  0  0  0  0  0  0  0  0  0  0  0 
    4.2592   -0.1109   -1.5777 O   0  0  0  0  0  0  0  0  0  0  0  0 
    2.8144   -0.0752   -1.4494 O   0  0  0  0  0  0  0  0  0  0  0  0 
    0.5347   -0.0920    0.9314 H   0  0  0  0  0  0  0  0  0  0  0  0 
    0.5659   -0.9804   -0.6097 H   0  0  0  0  0  0  0  0  0  0  0  0 
    0.5587    0.7976   -0.6092 H   0  0  0  0  0  0  0  0  0  0  0  0 
    4.6628   -3.8245    3.1252 H   0  0  0  0  0  0  0  0  0  0  0  0 
    4.6996    3.6668    3.0811 H   0  0  0  0  0  0  0  0  0  0  0  0 
    3.4156   -4.6090    1.1363 H   0  0  0  0  0  0  0  0  0  0  0  0 
    3.4395    4.4436    1.0970 H   0  0  0  0  0  0  0  0  0  0  0  0 
    4.9045   -1.3968    3.5876 H   0  0  0  0  0  0  0  0  0  0  0  0 
    4.9250    1.2434    3.5672 H   0  0  0  0  0  0  0  0  0  0  0  0 
    2.3668   -2.9699   -0.4206 H   0  0  0  0  0  0  0  0  0  0  0  0 
    2.3539    2.7961   -0.4276 H   0  0  0  0  0  0  0  0  0  0  0  0 
    4.4653    0.8430   -1.5644 H   0  0  0  0  0  0  0  0  0  0  0  0 
  1 14  1  0  0  0  0 
  1 17  1  0  0  0  0 
  2  6  1  0  0  0  0 
  2 20  1  0  0  0  0 
  3  7  1  0  0  0  0 
  3 21  1  0  0  0  0 
  4  2  2  0  0  0  0 
  5  3  2  0  0  0  0 
  6 24  1  0  0  0  0 
  7 25  1  0  0  0  0 
  8 12  2  0  0  0  0 
  8  4  1  0  0  0  0 
  9 13  2  0  0  0  0 
  9  5  1  0  0  0  0 
 10  6  2  0  0  0  0 
 11 10  1  0  0  0  0 
 11  7  2  0  0  0  0 
 12 10  1  0  0  0  0 
 13 11  1  0  0  0  0 
 14 13  1  0  0  0  0 
 14 12  1  0  0  0  0 
 15 28  1  0  0  0  0 
 15 16  1  0  0  0  0 
 16 14  1  0  0  0  0 
 18  1  1  0  0  0  0 
 19  1  1  0  0  0  0 
 22  4  1  0  0  0  0 
 23  5  1  0  0  0  0 
 26  8  1  0  0  0  0 
 27  9  1  0  0  0  0 
M  END 
>  <HBA> 
2 
 
>  <HBD> 
1 
 
>  <TPSA> 
29.46 
 
>  <cid> 
29246 
 
>  <dipole> 
2.08 
 
>  <excitation_energy_1> 
4.375 
 
>  <excitation_energy_2> 
4.424 
 
>  <excitation_energy_3> 
4.879 
 
>  <excitation_energy_4> 
5.246 
 
>  <homo_energy> 
-5.913 
 
>  <homo_lumo_gap> 
4.92 
 
>  <logP> 
3.42 
 
>  <lumo_energy> 
-0.993 
 
>  <melting_point> 
109.31 
 
>  <molecular_refractivity> 
62.24 
 
>  <oscillator_strength_1> 
0.0722 
 
>  <oscillator_strength_2> 
0.2 
 
>  <oscillator_strength_3> 
0.016 
 
>  <oscillator_strength_4> 
0.1637 
 
>  <open_babel_can_smiles> 
OOC1(C)c2ccccc2c2c1cccc2 
 
>  <mulliken_charges> 
28 
1   -0.460085 
2   -0.132951 
3   -0.133202 
4   -0.132584 
5   -0.13237 
6   -0.193012 
7   -0.19365 
8   -0.190365 
9   -0.213321 
10   0.086837 
11   0.093675 
12   0.106672 
13   0.056207 
14   0.190848 
15   -0.402299 
16   -0.313592 
17   0.166313 
18   0.164774 
19   0.159468 
20   0.129986 
21   0.132441 
22   0.130533 
23   0.131657 
24   0.129428 
25   0.133051 
26   0.139337 
27   0.136675 
28   0.409527 
 
>  <lowdin_charges> 
28 
1   -0.436353 
2   -0.153644 
3   -0.152624 
4   -0.152617 
5   -0.157145 
6   -0.16119 
7   -0.160573 
8   -0.148903 
9   -0.165839 
10   -0.008022 
11   -0.003563 
12   -0.011965 
13   -0.028041 
14   0.117958 
15   -0.333982 
16   -0.15519 
17   0.16657 
18   0.162671 
19   0.15983 
20   0.159747 
21   0.160862 
22   0.157214 
23   0.157617 
24   0.157977 
25   0.159778 
26   0.163867 
27   0.161203 
28   0.344358 
 
$$$$ 
 
