PCCDB-ID:  18233 
public computational chemistry database (PCCDB) project, http://pccdb.org 
 
 13 13  0  0  0  0  0  0  0  0999 V2000 
    0.6853    1.1607   -0.3740 C   0  0  0  0  0  0  0  0  0  0  0  0 
    1.4209    0.0771    0.3875 C   0  0  0  0  0  0  0  0  0  0  0  0 
   -1.3535    0.0571   -0.1362 C   0  0  0  0  0  0  0  0  0  0  0  0 
   -0.5996   -1.2470    0.1286 C   0  0  0  0  0  0  0  0  0  0  0  0 
   -1.1707   -2.3093    0.1296 O   0  0  0  0  0  0  0  0  0  0  0  0 
   -0.6388    1.2521    0.1250 O   0  0  0  0  0  0  0  0  0  0  0  0 
    0.7447   -1.1958    0.2897 O   0  0  0  0  0  0  0  0  0  0  0  0 
    0.6857    0.9481   -1.4561 H   0  0  0  0  0  0  0  0  0  0  0  0 
    1.1594    2.1328   -0.2105 H   0  0  0  0  0  0  0  0  0  0  0  0 
    1.4911    0.3448    1.4478 H   0  0  0  0  0  0  0  0  0  0  0  0 
    2.4279   -0.0907   -0.0053 H   0  0  0  0  0  0  0  0  0  0  0  0 
   -2.2469    0.0634    0.4924 H   0  0  0  0  0  0  0  0  0  0  0  0 
   -1.6839    0.0176   -1.1882 H   0  0  0  0  0  0  0  0  0  0  0  0 
  1  9  1  0  0  0  0 
  1  6  1  0  0  0  0 
  1  2  1  0  0  0  0 
  2 10  1  0  0  0  0 
  3  6  1  0  0  0  0 
  3  4  1  0  0  0  0 
  3 12  1  0  0  0  0 
  4  5  2  0  0  0  0 
  4  7  1  0  0  0  0 
  7  2  1  0  0  0  0 
  8  1  1  0  0  0  0 
 11  2  1  0  0  0  0 
 13  3  1  0  0  0  0 
M  END 
>  <HBA> 
3 
 
>  <HBD> 
0 
 
>  <TPSA> 
35.53 
 
>  <cid> 
18233 
 
>  <dipole> 
3.71 
 
>  <excitation_energy_1> 
5.41 
 
>  <excitation_energy_2> 
6.489 
 
>  <excitation_energy_3> 
6.723 
 
>  <excitation_energy_4> 
6.936 
 
>  <homo_energy> 
-7.004 
 
>  <homo_lumo_gap> 
7.075 
 
>  <logP> 
-0.44 
 
>  <lumo_energy> 
0.071 
 
>  <melting_point> 
0.84 
 
>  <molecular_refractivity> 
21.6 
 
>  <oscillator_strength_1> 
0.0023 
 
>  <oscillator_strength_2> 
0.0082 
 
>  <oscillator_strength_3> 
0.0052 
 
>  <oscillator_strength_4> 
0.0288 
 
>  <open_babel_can_smiles> 
O=C1COCCO1 
 
>  <mulliken_charges> 
13 
1   -0.072359 
2   -0.043787 
3   -0.128969 
4   0.576464 
5   -0.443715 
6   -0.456165 
7   -0.441237 
8   0.143877 
9   0.166296 
10   0.168325 
11   0.163528 
12   0.196329 
13   0.171412 
 
>  <lowdin_charges> 
13 
1   -0.145493 
2   -0.135381 
3   -0.170027 
4   0.181484 
5   -0.238497 
6   -0.263848 
7   -0.186781 
8   0.136753 
9   0.164904 
10   0.154529 
11   0.160695 
12   0.182339 
13   0.159322 
 
$$$$ 
 
