PCCDB-ID:  18079 
public computational chemistry database (PCCDB) project, http://pccdb.org 
 
 37 37  0  0  1  0  0  0  0  0999 V2000 
    0.6585    0.1423    0.0288 C   0  0  0  0  0  0  0  0  0  0  0  0 
    7.5998   -1.3267   -2.3111 C   0  0  0  0  0  0  0  0  0  0  0  0 
    6.7324   -0.1011   -4.3325 C   0  0  0  0  0  0  0  0  0  0  0  0 
    5.1974   -0.4512    0.0058 C   0  0  0  0  0  0  0  0  0  0  0  0 
    2.1871    0.2605   -0.0032 C   0  0  0  0  0  0  0  0  0  0  0  0 
    5.0894   -0.7980   -2.5241 C   0  0  0  0  0  0  0  0  0  0  0  0 
    6.5430   -0.3340   -2.8243 C   0  0  0  0  0  0  0  0  0  0  0  0 
    4.4300   -0.1392   -1.2901 C   0  0  1  0  0  0  0  0  0  0  0  0 
    2.2224    0.0592   -2.5082 C   0  0  0  0  0  0  0  0  0  0  0  0 
    2.5962   -1.9522   -1.1589 C   0  0  0  0  0  0  0  0  0  0  0  0 
    1.7101   -2.0577   -3.3032 C   0  0  0  0  0  0  0  0  0  0  0  0 
    2.8718   -0.4492   -1.2181 C   0  0  2  0  0  0  0  0  0  0  0  0 
    1.6954   -0.6437   -3.4279 N   0  0  0  0  0  0  0  0  0  0  0  0 
    2.0842   -2.6670   -2.0787 N   0  0  0  0  0  0  0  0  0  0  0  0 
    2.2188    1.4003   -2.6963 O   0  0  0  0  0  0  0  0  0  0  0  0 
    2.9198   -2.5944   -0.0114 O   0  0  0  0  0  0  0  0  0  0  0  0 
    1.3842   -2.7463   -4.2433 O   0  0  0  0  0  0  0  0  0  0  0  0 
    0.2623    0.6426    0.9183 H   0  0  0  0  0  0  0  0  0  0  0  0 
    0.3413   -0.9051    0.0644 H   0  0  0  0  0  0  0  0  0  0  0  0 
    0.1977    0.6046   -0.8497 H   0  0  0  0  0  0  0  0  0  0  0  0 
    8.6125   -0.9490   -2.4942 H   0  0  0  0  0  0  0  0  0  0  0  0 
    7.5059   -2.2883   -2.8311 H   0  0  0  0  0  0  0  0  0  0  0  0 
    7.5072   -1.5230   -1.2377 H   0  0  0  0  0  0  0  0  0  0  0  0 
    7.7537    0.2284   -4.5566 H   0  0  0  0  0  0  0  0  0  0  0  0 
    6.0405    0.6606   -4.7102 H   0  0  0  0  0  0  0  0  0  0  0  0 
    6.5491   -1.0247   -4.8957 H   0  0  0  0  0  0  0  0  0  0  0  0 
    6.2087   -0.0406   -0.0593 H   0  0  0  0  0  0  0  0  0  0  0  0 
    5.3047   -1.5299    0.1672 H   0  0  0  0  0  0  0  0  0  0  0  0 
    4.7369   -0.0008    0.8919 H   0  0  0  0  0  0  0  0  0  0  0  0 
    2.5924   -0.1359    0.9342 H   0  0  0  0  0  0  0  0  0  0  0  0 
    2.4818    1.3198    0.0044 H   0  0  0  0  0  0  0  0  0  0  0  0 
    5.0702   -1.8899   -2.4061 H   0  0  0  0  0  0  0  0  0  0  0  0 
    4.4697   -0.5815   -3.4009 H   0  0  0  0  0  0  0  0  0  0  0  0 
    6.7090    0.6321   -2.3222 H   0  0  0  0  0  0  0  0  0  0  0  0 
    4.4944    0.9505   -1.4344 H   0  0  0  0  0  0  0  0  0  0  0  0 
    2.6238    1.8478   -1.9373 H   0  0  0  0  0  0  0  0  0  0  0  0 
    3.3055   -1.9737    0.6247 H   0  0  0  0  0  0  0  0  0  0  0  0 
  1 19  1  0  0  0  0 
  1 18  1  0  0  0  0 
  2 23  1  0  0  0  0 
  3  7  1  0  0  0  0 
  4 28  1  0  0  0  0 
  4 29  1  0  0  0  0 
  5 31  1  0  0  0  0 
  5  1  1  0  0  0  0 
  5 30  1  0  0  0  0 
  6 32  1  0  0  0  0 
  6  8  1  0  0  0  0 
  7  6  1  0  0  0  0 
  7 34  1  0  0  0  0 
  7  2  1  0  0  0  0 
  8 35  1  6  0  0  0 
  8 12  1  0  0  0  0 
  8  4  1  0  0  0  0 
  9 12  1  0  0  0  0 
 10 16  1  0  0  0  0 
 11 14  1  0  0  0  0 
 12 10  1  0  0  0  0 
 12  5  1  1  0  0  0 
 13 11  2  0  0  0  0 
 13  9  2  0  0  0  0 
 14 10  2  0  0  0  0 
 15  9  1  0  0  0  0 
 15 36  1  0  0  0  0 
 16 37  1  0  0  0  0 
 17 11  2  0  0  0  0 
 20  1  1  0  0  0  0 
 21  2  1  0  0  0  0 
 22  2  1  0  0  0  0 
 24  3  1  0  0  0  0 
 25  3  1  0  0  0  0 
 26  3  1  0  0  0  0 
 27  4  1  0  0  0  0 
 33  6  1  0  0  0  0 
M  END 
>  <HBA> 
5 
 
>  <HBD> 
2 
 
>  <TPSA> 
75.27 
 
>  <cid> 
18079 
 
>  <dipole> 
9.89 
 
>  <excitation_energy_1> 
3.993 
 
>  <excitation_energy_2> 
4.183 
 
>  <excitation_energy_3> 
5.232 
 
>  <excitation_energy_4> 
5.522 
 
>  <homo_energy> 
-6.849 
 
>  <homo_lumo_gap> 
5.38 
 
>  <logP> 
2.089 
 
>  <lumo_energy> 
-1.469 
 
>  <melting_point> 
139.58 
 
>  <molecular_refractivity> 
71.85 
 
>  <oscillator_strength_1> 
0.0002 
 
>  <oscillator_strength_2> 
0.0001 
 
>  <oscillator_strength_3> 
0.0003 
 
>  <oscillator_strength_4> 
0.0181 
 
>  <open_babel_can_smiles> 
CC[C@@]1([C@H](CC(C)C)C)C(=N[C](=[N]=C1O)=O)O 
 
>  <mulliken_charges> 
37 
1   -0.466915 
2   -0.451598 
3   -0.45291 
4   -0.505977 
5   -0.30057 
6   -0.299938 
7   -0.066602 
8   -0.080624 
9   0.542 
10   0.535938 
11   0.617071 
12   -0.132676 
13   -0.469981 
14   -0.466212 
15   -0.581618 
16   -0.581091 
17   -0.432275 
18   0.160956 
19   0.181113 
20   0.18188 
21   0.145608 
22   0.1524 
23   0.140181 
24   0.143093 
25   0.149273 
26   0.154232 
27   0.179357 
28   0.166075 
29   0.148569 
30   0.143468 
31   0.1362 
32   0.1612 
33   0.171485 
34   0.120166 
35   0.119468 
36   0.417305 
37   0.421952 
 
>  <lowdin_charges> 
37 
1   -0.453252 
2   -0.445429 
3   -0.445148 
4   -0.463886 
5   -0.275099 
6   -0.289026 
7   -0.119957 
8   -0.114211 
9   0.149439 
10   0.149208 
11   0.174641 
12   -0.06692 
13   -0.187122 
14   -0.186268 
15   -0.335774 
16   -0.33437 
17   -0.212045 
18   0.162553 
19   0.165897 
20   0.16749 
21   0.149894 
22   0.151803 
23   0.144492 
24   0.14867 
25   0.152547 
26   0.153329 
27   0.168995 
28   0.155124 
29   0.150269 
30   0.146486 
31   0.140707 
32   0.154006 
33   0.162543 
34   0.131814 
35   0.133204 
36   0.357173 
37   0.358227 
 
$$$$ 
 
