PCCDB-ID:  69591 
public computational chemistry database (PCCDB) project, http://pccdb.org 
 
 19 20  0  0  0  0  0  0  0  0999 V2000 
   -1.4422   -0.1210    0.0341 C   0  0  0  0  0  0  0  0  0  0  0  0 
   -0.8403    1.1231    0.2273 C   0  0  0  0  0  0  0  0  0  0  0  0 
   -0.6421   -1.2438   -0.1961 C   0  0  0  0  0  0  0  0  0  0  0  0 
    0.5479    1.2447    0.1909 C   0  0  0  0  0  0  0  0  0  0  0  0 
    0.7438   -1.1264   -0.2335 C   0  0  0  0  0  0  0  0  0  0  0  0 
    4.9094   -0.3110   -0.2515 C   0  0  0  0  0  0  0  0  0  0  0  0 
    4.8786    1.0490   -0.0587 C   0  0  0  0  0  0  0  0  0  0  0  0 
    1.3597    0.1225   -0.0414 C   0  0  0  0  0  0  0  0  0  0  0  0 
    2.8225    0.2018   -0.0909 C   0  0  0  0  0  0  0  0  0  0  0  0 
    3.6396   -0.8269   -0.2701 N   0  0  0  0  0  0  0  0  0  0  0  0 
    3.5416    1.3653    0.0425 N   0  0  0  0  0  0  0  0  0  0  0  0 
   -2.5242   -0.2150    0.0627 H   0  0  0  0  0  0  0  0  0  0  0  0 
   -1.4511    2.0035    0.4085 H   0  0  0  0  0  0  0  0  0  0  0  0 
   -1.1016   -2.2168   -0.3491 H   0  0  0  0  0  0  0  0  0  0  0  0 
    0.9898    2.2261    0.3485 H   0  0  0  0  0  0  0  0  0  0  0  0 
    1.3755   -1.9898   -0.4124 H   0  0  0  0  0  0  0  0  0  0  0  0 
    5.7768   -0.9452   -0.3762 H   0  0  0  0  0  0  0  0  0  0  0  0 
    5.6525    1.7985    0.0111 H   0  0  0  0  0  0  0  0  0  0  0  0 
    3.1664    2.2916    0.1798 H   0  0  0  0  0  0  0  0  0  0  0  0 
  1 12  1  0  0  0  0 
  1  2  2  0  0  0  0 
  2 13  1  0  0  0  0 
  3  1  1  0  0  0  0 
  4  2  1  0  0  0  0 
  4 15  1  0  0  0  0 
  5  3  2  0  0  0  0 
  5  8  1  0  0  0  0 
  6  7  2  0  0  0  0 
  7 18  1  0  0  0  0 
  7 11  1  0  0  0  0 
  8  4  2  0  0  0  0 
  9  8  1  0  0  0  0 
  9 11  1  0  0  0  0 
 10  6  1  0  0  0  0 
 10  9  2  0  0  0  0 
 11 19  1  0  0  0  0 
 14  3  1  0  0  0  0 
 16  5  1  0  0  0  0 
 17  6  1  0  0  0  0 
M  END 
>  <HBA> 
1 
 
>  <HBD> 
1 
 
>  <TPSA> 
28.68 
 
>  <cid> 
69591 
 
>  <dipole> 
3.18 
 
>  <excitation_energy_1> 
4.47 
 
>  <excitation_energy_2> 
4.672 
 
>  <excitation_energy_3> 
4.76 
 
>  <excitation_energy_4> 
5.423 
 
>  <homo_energy> 
-5.592 
 
>  <homo_lumo_gap> 
4.879 
 
>  <logP> 
2.077 
 
>  <lumo_energy> 
-0.713 
 
>  <melting_point> 
103.37 
 
>  <molecular_refractivity> 
44.02 
 
>  <oscillator_strength_1> 
0.4971 
 
>  <oscillator_strength_2> 
0.0136 
 
>  <oscillator_strength_3> 
0.0028 
 
>  <oscillator_strength_4> 
0.0016 
 
>  <open_babel_can_smiles> 
c1ccc(cc1)c1ncc[nH]1 
 
>  <mulliken_charges> 
19 
1   -0.126854 
2   -0.134422 
3   -0.135094 
4   -0.191014 
5   -0.171238 
6   -0.017929 
7   0.026482 
8   0.146308 
9   0.440108 
10   -0.493597 
11   -0.63003 
12   0.130357 
13   0.129635 
14   0.133538 
15   0.103789 
16   0.16614 
17   0.135303 
18   0.153072 
19   0.335445 
 
>  <lowdin_charges> 
19 
1   -0.155414 
2   -0.15535 
3   -0.151914 
4   -0.170287 
5   -0.143944 
6   -0.147934 
7   -0.166153 
8   -0.008996 
9   0.050077 
10   -0.195351 
11   -0.17858 
12   0.156553 
13   0.158615 
14   0.159533 
15   0.144685 
16   0.17873 
17   0.16302 
18   0.1711 
19   0.29161 
 
$$$$ 
 
