PCCDB-ID:  61201 
public computational chemistry database (PCCDB) project, http://pccdb.org 
 
 27 27  0  0  0  0  0  0  0  0999 V2000 
    0.9722    1.5165   -0.8183 C   0  0  0  0  0  0  0  0  0  0  0  0 
    1.5720    0.2619   -0.1651 C   0  0  0  0  0  0  0  0  0  0  0  0 
   -0.5037    1.6943   -0.4305 C   0  0  0  0  0  0  0  0  0  0  0  0 
   -2.2063   -0.8438    3.4087 C   0  0  0  0  0  0  0  0  0  0  0  0 
    0.7382   -0.9871   -0.4944 C   0  0  0  0  0  0  0  0  0  0  0  0 
   -1.3248    0.4380   -0.7588 C   0  0  0  0  0  0  0  0  0  0  0  0 
   -3.5271   -1.0852    3.9943 C   0  0  0  0  0  0  0  0  0  0  0  0 
   -2.1886   -1.0647    1.8833 C   0  0  0  0  0  0  0  0  0  0  0  0 
   -0.7440   -0.8331   -0.1043 C   0  0  0  0  0  0  0  0  0  0  0  0 
   -4.5820   -1.2796    4.4380 N   0  0  0  0  0  0  0  0  0  0  0  0 
   -0.8579   -0.7716    1.3658 N   0  0  0  0  0  0  0  0  0  0  0  0 
    1.0526    1.4289   -1.9126 H   0  0  0  0  0  0  0  0  0  0  0  0 
    1.5505    2.4047   -0.5338 H   0  0  0  0  0  0  0  0  0  0  0  0 
    1.6063    0.4021    0.9229 H   0  0  0  0  0  0  0  0  0  0  0  0 
    2.6070    0.1142   -0.4992 H   0  0  0  0  0  0  0  0  0  0  0  0 
   -0.9314    2.5627   -0.9474 H   0  0  0  0  0  0  0  0  0  0  0  0 
   -0.5738    1.8945    0.6458 H   0  0  0  0  0  0  0  0  0  0  0  0 
   -1.4831   -1.5106    3.8968 H   0  0  0  0  0  0  0  0  0  0  0  0 
   -1.8908    0.1824    3.6278 H   0  0  0  0  0  0  0  0  0  0  0  0 
    1.1615   -1.8756   -0.0035 H   0  0  0  0  0  0  0  0  0  0  0  0 
    0.7857   -1.1824   -1.5744 H   0  0  0  0  0  0  0  0  0  0  0  0 
   -1.3362    0.2776   -1.8464 H   0  0  0  0  0  0  0  0  0  0  0  0 
   -2.3719    0.5787   -0.4629 H   0  0  0  0  0  0  0  0  0  0  0  0 
   -2.9081   -0.3807    1.4234 H   0  0  0  0  0  0  0  0  0  0  0  0 
   -2.5364   -2.0889    1.6552 H   0  0  0  0  0  0  0  0  0  0  0  0 
   -1.2955   -1.7082   -0.4979 H   0  0  0  0  0  0  0  0  0  0  0  0 
   -0.2022   -1.4443    1.7631 H   0  0  0  0  0  0  0  0  0  0  0  0 
  1 13  1  0  0  0  0 
  1  3  1  0  0  0  0 
  1  2  1  0  0  0  0 
  2 14  1  0  0  0  0 
  3 17  1  0  0  0  0 
  4 19  1  0  0  0  0 
  4 18  1  0  0  0  0 
  4  7  1  0  0  0  0 
  5  2  1  0  0  0  0 
  5  9  1  0  0  0  0 
  5 20  1  0  0  0  0 
  6 23  1  0  0  0  0 
  6  3  1  0  0  0  0 
  6  9  1  0  0  0  0 
  7 10  3  0  0  0  0 
  8  4  1  0  0  0  0 
  9 11  1  0  0  0  0 
 11 27  1  0  0  0  0 
 11  8  1  0  0  0  0 
 12  1  1  0  0  0  0 
 15  2  1  0  0  0  0 
 16  3  1  0  0  0  0 
 21  5  1  0  0  0  0 
 22  6  1  0  0  0  0 
 24  8  1  0  0  0  0 
 25  8  1  0  0  0  0 
 26  9  1  0  0  0  0 
M  END 
>  <HBA> 
2 
 
>  <HBD> 
1 
 
>  <TPSA> 
35.82 
 
>  <cid> 
61201 
 
>  <dipole> 
4.18 
 
>  <excitation_energy_1> 
5.429 
 
>  <excitation_energy_2> 
5.964 
 
>  <excitation_energy_3> 
6.131 
 
>  <excitation_energy_4> 
6.266 
 
>  <homo_energy> 
-6.414 
 
>  <homo_lumo_gap> 
7.35 
 
>  <logP> 
2.213 
 
>  <lumo_energy> 
0.936 
 
>  <melting_point> 
55.1 
 
>  <molecular_refractivity> 
45.81 
 
>  <oscillator_strength_1> 
0.0021 
 
>  <oscillator_strength_2> 
0.0346 
 
>  <oscillator_strength_3> 
0.0027 
 
>  <oscillator_strength_4> 
0.0205 
 
>  <open_babel_can_smiles> 
N#CCCNC1CCCCC1 
 
>  <mulliken_charges> 
27 
1   -0.259108 
2   -0.250087 
3   -0.250774 
4   -0.346993 
5   -0.29066 
6   -0.26406 
7   0.34743 
8   -0.121688 
9   0.05441 
10   -0.47228 
11   -0.566364 
12   0.124797 
13   0.131242 
14   0.140806 
15   0.129711 
16   0.128555 
17   0.144794 
18   0.185885 
19   0.206011 
20   0.123858 
21   0.137159 
22   0.130045 
23   0.132295 
24   0.168399 
25   0.137593 
26   0.106036 
27   0.292988 
 
>  <lowdin_charges> 
27 
1   -0.275197 
2   -0.275891 
3   -0.278021 
4   -0.278289 
5   -0.281845 
6   -0.280366 
7   -0.017785 
8   -0.194047 
9   -0.064083 
10   -0.128321 
11   -0.366647 
12   0.133341 
13   0.144472 
14   0.142226 
15   0.141996 
16   0.143844 
17   0.144789 
18   0.177619 
19   0.186488 
20   0.138848 
21   0.14428 
22   0.140334 
23   0.141569 
24   0.157481 
25   0.129514 
26   0.120927 
27   0.252763 
 
$$$$ 
 
