PCCDB-ID:  50547 
public computational chemistry database (PCCDB) project, http://pccdb.org 
 
 38 39  0  0  0  0  0  0  0  0999 V2000 
    1.0255   -3.5731    3.1187 C   0  0  0  0  0  0  0  0  0  0  0  0 
    3.5569   -3.3906    3.2157 C   0  0  0  0  0  0  0  0  0  0  0  0 
    2.7382   -6.1020   -2.7445 C   0  0  0  0  0  0  0  0  0  0  0  0 
    2.3039    3.0703   -0.3798 C   0  0  0  0  0  0  0  0  0  0  0  0 
    3.3001    2.2461    0.1514 C   0  0  0  0  0  0  0  0  0  0  0  0 
    1.3309    2.5270   -1.2182 C   0  0  0  0  0  0  0  0  0  0  0  0 
    3.3247    0.8883   -0.1607 C   0  0  0  0  0  0  0  0  0  0  0  0 
    1.3535    1.1640   -1.5229 C   0  0  0  0  0  0  0  0  0  0  0  0 
    2.5844   -6.0404   -0.2162 C   0  0  0  0  0  0  0  0  0  0  0  0 
    2.4895   -5.3330    0.9831 C   0  0  0  0  0  0  0  0  0  0  0  0 
    2.5211   -3.9607   -1.4183 C   0  0  0  0  0  0  0  0  0  0  0  0 
    2.3959   -1.1322   -1.3540 C   0  0  0  0  0  0  0  0  0  0  0  0 
    2.3013   -3.1878    2.3460 C   0  0  0  0  0  0  0  0  0  0  0  0 
    2.6035   -5.3594   -1.4349 C   0  0  0  0  0  0  0  0  0  0  0  0 
    2.3508    0.3344   -1.0024 C   0  0  0  0  0  0  0  0  0  0  0  0 
    2.4091   -3.9394    1.0239 C   0  0  0  0  0  0  0  0  0  0  0  0 
    2.4292   -3.2574   -0.2119 C   0  0  0  0  0  0  0  0  0  0  0  0 
    2.3446   -1.8886   -0.1451 O   0  0  0  0  0  0  0  0  0  0  0  0 
    0.9408   -2.9829    4.0393 H   0  0  0  0  0  0  0  0  0  0  0  0 
    1.0303   -4.6324    3.4030 H   0  0  0  0  0  0  0  0  0  0  0  0 
    0.1289   -3.3934    2.5156 H   0  0  0  0  0  0  0  0  0  0  0  0 
    3.4833   -2.8075    4.1419 H   0  0  0  0  0  0  0  0  0  0  0  0 
    4.4615   -3.0741    2.6848 H   0  0  0  0  0  0  0  0  0  0  0  0 
    3.6861   -4.4434    3.4949 H   0  0  0  0  0  0  0  0  0  0  0  0 
    2.2690   -7.0905   -2.6930 H   0  0  0  0  0  0  0  0  0  0  0  0 
    3.7929   -6.2576   -3.0094 H   0  0  0  0  0  0  0  0  0  0  0  0 
    2.2745   -5.5512   -3.5702 H   0  0  0  0  0  0  0  0  0  0  0  0 
    2.2869    4.1298   -0.1386 H   0  0  0  0  0  0  0  0  0  0  0  0 
    4.0593    2.6637    0.8075 H   0  0  0  0  0  0  0  0  0  0  0  0 
    0.5502    3.1601   -1.6314 H   0  0  0  0  0  0  0  0  0  0  0  0 
    4.0963    0.2465    0.2560 H   0  0  0  0  0  0  0  0  0  0  0  0 
    0.5882    0.7419   -2.1704 H   0  0  0  0  0  0  0  0  0  0  0  0 
    2.6420   -7.1261   -0.2009 H   0  0  0  0  0  0  0  0  0  0  0  0 
    2.4724   -5.8859    1.9196 H   0  0  0  0  0  0  0  0  0  0  0  0 
    2.5259   -3.4275   -2.3629 H   0  0  0  0  0  0  0  0  0  0  0  0 
    3.3235   -1.3731   -1.8947 H   0  0  0  0  0  0  0  0  0  0  0  0 
    1.5518   -1.3972   -2.0057 H   0  0  0  0  0  0  0  0  0  0  0  0 
    2.2323   -2.1223    2.1107 H   0  0  0  0  0  0  0  0  0  0  0  0 
  1 20  1  0  0  0  0 
  1 19  1  0  0  0  0 
  2 24  1  0  0  0  0 
  2 22  1  0  0  0  0 
  3 25  1  0  0  0  0 
  3 14  1  0  0  0  0 
  4 28  1  0  0  0  0 
  4  5  2  0  0  0  0 
  5 29  1  0  0  0  0 
  6  4  1  0  0  0  0 
  7  5  1  0  0  0  0 
  7 31  1  0  0  0  0 
  8  6  2  0  0  0  0 
  8 15  1  0  0  0  0 
  9 33  1  0  0  0  0 
  9 10  2  0  0  0  0 
 10 16  1  0  0  0  0 
 10 34  1  0  0  0  0 
 11 17  1  0  0  0  0 
 12 15  1  0  0  0  0 
 12 18  1  0  0  0  0 
 13  1  1  0  0  0  0 
 13  2  1  0  0  0  0 
 14 11  2  0  0  0  0 
 14  9  1  0  0  0  0 
 15  7  2  0  0  0  0 
 16 13  1  0  0  0  0 
 17 18  1  0  0  0  0 
 17 16  2  0  0  0  0 
 21  1  1  0  0  0  0 
 23  2  1  0  0  0  0 
 26  3  1  0  0  0  0 
 27  3  1  0  0  0  0 
 30  6  1  0  0  0  0 
 32  8  1  0  0  0  0 
 35 11  1  0  0  0  0 
 36 12  1  0  0  0  0 
 37 12  1  0  0  0  0 
 38 13  1  0  0  0  0 
M  END 
>  <HBA> 
1 
 
>  <HBD> 
0 
 
>  <TPSA> 
9.23 
 
>  <cid> 
50547 
 
>  <dipole> 
1.37 
 
>  <excitation_energy_1> 
4.678 
 
>  <excitation_energy_2> 
4.895 
 
>  <excitation_energy_3> 
4.959 
 
>  <excitation_energy_4> 
5.26 
 
>  <homo_energy> 
-5.636 
 
>  <homo_lumo_gap> 
5.415 
 
>  <logP> 
4.697 
 
>  <lumo_energy> 
-0.22 
 
>  <melting_point> 
47.16 
 
>  <molecular_refractivity> 
76.97 
 
>  <oscillator_strength_1> 
0.0074 
 
>  <oscillator_strength_2> 
0.0215 
 
>  <oscillator_strength_3> 
0.0306 
 
>  <oscillator_strength_4> 
0.0047 
 
>  <open_babel_can_smiles> 
Cc1ccc(c(c1)OCc1ccccc1)C(C)C 
 
>  <mulliken_charges> 
38 
1   -0.437379 
2   -0.437064 
3   -0.529412 
4   -0.126216 
5   -0.132301 
6   -0.128992 
7   -0.156721 
8   -0.179271 
9   -0.182715 
10   -0.198408 
11   -0.250231 
12   -0.117302 
13   -0.155368 
14   0.173939 
15   0.144591 
16   0.124623 
17   0.319604 
18   -0.524606 
19   0.137836 
20   0.137687 
21   0.148742 
22   0.13773 
23   0.14561 
24   0.138577 
25   0.156485 
26   0.163535 
27   0.152198 
28   0.131247 
29   0.132362 
30   0.1315 
31   0.138625 
32   0.127701 
33   0.114087 
34   0.122596 
35   0.124479 
36   0.149527 
37   0.144215 
38   0.158493 
 
>  <lowdin_charges> 
38 
1   -0.43913 
2   -0.439383 
3   -0.440431 
4   -0.152678 
5   -0.154371 
6   -0.15661 
7   -0.152436 
8   -0.162423 
9   -0.185283 
10   -0.155287 
11   -0.225929 
12   -0.124371 
13   -0.121031 
14   0.005532 
15   -0.014202 
16   -0.031349 
17   0.095692 
18   -0.206077 
19   0.146505 
20   0.142423 
21   0.152488 
22   0.146213 
23   0.150867 
24   0.143124 
25   0.157327 
26   0.159226 
27   0.156081 
28   0.156954 
29   0.159834 
30   0.159845 
31   0.163688 
32   0.157325 
33   0.149808 
34   0.154336 
35   0.157847 
36   0.145771 
37   0.143696 
38   0.15641 
 
$$$$ 
 
