PCCDB-ID:  35162 
public computational chemistry database (PCCDB) project, http://pccdb.org 
 
 31 32  0  0  0  0  0  0  0  0999 V2000 
    3.3926   -1.6154    2.3396 C   0  0  0  0  0  0  0  0  0  0  0  0 
    3.4585   -1.4197   -2.5331 C   0  0  0  0  0  0  0  0  0  0  0  0 
    8.2942    6.2843    0.3247 C   0  0  0  0  0  0  0  0  0  0  0  0 
    7.9918    5.5824    1.4930 C   0  0  0  0  0  0  0  0  0  0  0  0 
    8.0448    5.6957   -0.9164 C   0  0  0  0  0  0  0  0  0  0  0  0 
    7.4436    4.3014    1.4181 C   0  0  0  0  0  0  0  0  0  0  0  0 
    7.4967    4.4143   -0.9859 C   0  0  0  0  0  0  0  0  0  0  0  0 
    6.5625    2.3233    0.0999 C   0  0  0  0  0  0  0  0  0  0  0  0 
    5.0118    2.3788    0.0817 C   0  0  0  0  0  0  0  0  0  0  0  0 
    3.6847   -0.8715    1.0669 C   0  0  0  0  0  0  0  0  0  0  0  0 
    3.7145   -0.7804   -1.1974 C   0  0  0  0  0  0  0  0  0  0  0  0 
    7.1874    3.6993    0.1788 C   0  0  0  0  0  0  0  0  0  0  0  0 
    4.4201    0.9965    0.0177 C   0  0  0  0  0  0  0  0  0  0  0  0 
    3.4302   -1.4910   -0.0956 N   0  0  0  0  0  0  0  0  0  0  0  0 
    4.1802    0.3695    1.1786 N   0  0  0  0  0  0  0  0  0  0  0  0 
    4.2113    0.4652   -1.1958 N   0  0  0  0  0  0  0  0  0  0  0  0 
    2.9982   -2.6086    2.1192 H   0  0  0  0  0  0  0  0  0  0  0  0 
    2.6685   -1.0568    2.9432 H   0  0  0  0  0  0  0  0  0  0  0  0 
    4.3048   -1.7053    2.9400 H   0  0  0  0  0  0  0  0  0  0  0  0 
    3.0497   -2.4231   -2.4039 H   0  0  0  0  0  0  0  0  0  0  0  0 
    4.3896   -1.4726   -3.1086 H   0  0  0  0  0  0  0  0  0  0  0  0 
    2.7597   -0.8080   -3.1145 H   0  0  0  0  0  0  0  0  0  0  0  0 
    8.7249    7.2805    0.3810 H   0  0  0  0  0  0  0  0  0  0  0  0 
    8.1872    6.0302    2.4640 H   0  0  0  0  0  0  0  0  0  0  0  0 
    8.2819    6.2321   -1.8316 H   0  0  0  0  0  0  0  0  0  0  0  0 
    7.2142    3.7581    2.3325 H   0  0  0  0  0  0  0  0  0  0  0  0 
    7.3092    3.9597   -1.9566 H   0  0  0  0  0  0  0  0  0  0  0  0 
    6.9029    1.8067   -0.8056 H   0  0  0  0  0  0  0  0  0  0  0  0 
    6.8791    1.7159    0.9563 H   0  0  0  0  0  0  0  0  0  0  0  0 
    4.6807    2.9498   -0.7910 H   0  0  0  0  0  0  0  0  0  0  0  0 
    4.6573    2.8774    0.9888 H   0  0  0  0  0  0  0  0  0  0  0  0 
  1 19  1  0  0  0  0 
  1 18  1  0  0  0  0 
  2 20  1  0  0  0  0 
  2 11  1  0  0  0  0 
  3 23  1  0  0  0  0 
  3  4  2  0  0  0  0 
  4 24  1  0  0  0  0 
  5  3  1  0  0  0  0 
  6  4  1  0  0  0  0 
  6 26  1  0  0  0  0 
  7  5  2  0  0  0  0 
  7 12  1  0  0  0  0 
  8 12  1  0  0  0  0 
  8 29  1  0  0  0  0 
  9  8  1  0  0  0  0 
  9 31  1  0  0  0  0 
 10 15  1  0  0  0  0 
 10  1  1  0  0  0  0 
 11 16  1  0  0  0  0 
 11 14  2  0  0  0  0 
 12  6  2  0  0  0  0 
 13  9  1  0  0  0  0 
 13 15  2  0  0  0  0 
 14 10  2  0  0  0  0 
 16 13  1  0  0  0  0 
 17  1  1  0  0  0  0 
 21  2  1  0  0  0  0 
 22  2  1  0  0  0  0 
 25  5  1  0  0  0  0 
 27  7  1  0  0  0  0 
 28  8  1  0  0  0  0 
 30  9  1  0  0  0  0 
M  RAD  1  16   2 
M  END 
>  <HBA> 
3 
 
>  <HBD> 
0 
 
>  <TPSA> 
38.67 
 
>  <cid> 
35162 
 
>  <dipole> 
0.12 
 
>  <excitation_energy_1> 
4.53 
 
>  <excitation_energy_2> 
4.658 
 
>  <excitation_energy_3> 
4.692 
 
>  <excitation_energy_4> 
4.704 
 
>  <homo_energy> 
-6.49 
 
>  <homo_lumo_gap> 
5.418 
 
>  <logP> 
2.274 
 
>  <lumo_energy> 
-1.072 
 
>  <melting_point> 
93.07 
 
>  <molecular_refractivity> 
64.02 
 
>  <oscillator_strength_1> 
0.0 
 
>  <oscillator_strength_2> 
0.0037 
 
>  <oscillator_strength_3> 
0.0281 
 
>  <oscillator_strength_4> 
0.0001 
 
>  <open_babel_can_smiles> 
CC1=[N]=C(N=C([N]1)CCc1ccccc1)C 
 
>  <mulliken_charges> 
31 
1   -0.505257 
2   -0.5053 
3   -0.130623 
4   -0.128279 
5   -0.127922 
6   -0.180643 
7   -0.181108 
8   -0.362176 
9   -0.303754 
10   0.428196 
11   0.428062 
12   0.172678 
13   0.414473 
14   -0.454707 
15   -0.452791 
16   -0.4528 
17   0.175963 
18   0.178008 
19   0.1769 
20   0.175982 
21   0.177015 
22   0.177974 
23   0.128043 
24   0.128869 
25   0.128778 
26   0.126603 
27   0.126429 
28   0.15711 
29   0.157213 
30   0.16344 
31   0.163622 
 
>  <lowdin_charges> 
31 
1   -0.447975 
2   -0.447916 
3   -0.158768 
4   -0.155033 
5   -0.155719 
6   -0.16748 
7   -0.166897 
8   -0.267832 
9   -0.278912 
10   0.119181 
11   0.11914 
12   -0.000604 
13   0.115208 
14   -0.190798 
15   -0.190481 
16   -0.190469 
17   0.169869 
18   0.176332 
19   0.174749 
20   0.169737 
21   0.17471 
22   0.176333 
23   0.156167 
24   0.15706 
25   0.157634 
26   0.156275 
27   0.155598 
28   0.155902 
29   0.156168 
30   0.164496 
31   0.164325 
 
$$$$ 
 
