PCCDB-ID:  48564 
public computational chemistry database (PCCDB) project, http://pccdb.org 
 
 29 29  0  0  1  0  0  0  0  0999 V2000 
    2.0611   -2.0190   -2.4872 C   0  0  0  0  0  0  0  0  0  0  0  0 
    7.1674   -0.8502    2.7653 C   0  0  0  0  0  0  0  0  0  0  0  0 
    2.7567   -1.0093   -1.9649 C   0  0  0  0  0  0  0  0  0  0  0  0 
    6.8186   -0.8998    1.2745 C   0  0  0  0  0  0  0  0  0  0  0  0 
    3.2952   -0.9921   -0.5590 C   0  0  0  0  0  0  0  0  0  0  0  0 
    5.3029   -0.9307    1.0348 C   0  0  0  0  0  0  0  0  0  0  0  0 
    5.4134    0.2335   -1.2099 C   0  0  0  0  0  0  0  0  0  0  0  0 
    5.4325   -2.2209   -1.1412 C   0  0  0  0  0  0  0  0  0  0  0  0 
    6.6075   -1.0299   -2.7521 C   0  0  0  0  0  0  0  0  0  0  0  0 
    4.8623   -0.9778   -0.4626 C   0  0  2  0  0  0  0  0  0  0  0  0 
    6.1821    0.2185   -2.2221 N   0  0  0  0  0  0  0  0  0  0  0  0 
    6.2073   -2.2501   -2.1487 N   0  0  0  0  0  0  0  0  0  0  0  0 
    5.0345    1.4504   -0.7509 O   0  0  0  0  0  0  0  0  0  0  0  0 
    5.0829   -3.4144   -0.6080 O   0  0  0  0  0  0  0  0  0  0  0  0 
    7.3230   -1.0498   -3.7273 O   0  0  0  0  0  0  0  0  0  0  0  0 
    1.6970   -1.9897   -3.5099 H   0  0  0  0  0  0  0  0  0  0  0  0 
    1.8316   -2.9163   -1.9160 H   0  0  0  0  0  0  0  0  0  0  0  0 
    8.2522   -0.8302    2.9103 H   0  0  0  0  0  0  0  0  0  0  0  0 
    6.7769   -1.7265    3.2970 H   0  0  0  0  0  0  0  0  0  0  0  0 
    6.7512    0.0443    3.2446 H   0  0  0  0  0  0  0  0  0  0  0  0 
    2.9700   -0.1309   -2.5732 H   0  0  0  0  0  0  0  0  0  0  0  0 
    7.2790   -1.7845    0.8176 H   0  0  0  0  0  0  0  0  0  0  0  0 
    7.2509   -0.0296    0.7651 H   0  0  0  0  0  0  0  0  0  0  0  0 
    2.9126   -1.8590   -0.0053 H   0  0  0  0  0  0  0  0  0  0  0  0 
    2.9135   -0.1113   -0.0218 H   0  0  0  0  0  0  0  0  0  0  0  0 
    4.8387   -0.0556    1.5125 H   0  0  0  0  0  0  0  0  0  0  0  0 
    4.8674   -1.7928    1.5603 H   0  0  0  0  0  0  0  0  0  0  0  0 
    4.4675    1.3556    0.0300 H   0  0  0  0  0  0  0  0  0  0  0  0 
    4.4949   -3.2857    0.1522 H   0  0  0  0  0  0  0  0  0  0  0  0 
  1  3  2  0  0  0  0 
  1 17  1  0  0  0  0 
  2 18  1  0  0  0  0 
  2 20  1  0  0  0  0 
  2 19  1  0  0  0  0 
  3  5  1  0  0  0  0 
  4  2  1  0  0  0  0 
  5 25  1  0  0  0  0 
  5 24  1  0  0  0  0 
  6  4  1  0  0  0  0 
  6 26  1  0  0  0  0 
  6 27  1  0  0  0  0 
  7 13  1  0  0  0  0 
  7 10  1  0  0  0  0 
  8 14  1  0  0  0  0 
  8 10  1  0  0  0  0 
  9 11  2  0  0  0  0 
  9 12  1  0  0  0  0 
 10  5  1  6  0  0  0 
 10  6  1  0  0  0  0 
 11  7  2  0  0  0  0 
 12  8  2  0  0  0  0 
 13 28  1  0  0  0  0 
 14 29  1  0  0  0  0 
 15  9  2  0  0  0  0 
 16  1  1  0  0  0  0 
 21  3  1  0  0  0  0 
 22  4  1  0  0  0  0 
 23  4  1  0  0  0  0 
M  END 
>  <HBA> 
5 
 
>  <HBD> 
2 
 
>  <TPSA> 
75.27 
 
>  <cid> 
48564 
 
>  <dipole> 
9.72 
 
>  <excitation_energy_1> 
3.989 
 
>  <excitation_energy_2> 
4.16 
 
>  <excitation_energy_3> 
5.191 
 
>  <excitation_energy_4> 
5.323 
 
>  <homo_energy> 
-6.882 
 
>  <homo_lumo_gap> 
5.382 
 
>  <logP> 
1.373 
 
>  <lumo_energy> 
-1.499 
 
>  <melting_point> 
120.31 
 
>  <molecular_refractivity> 
61.76 
 
>  <oscillator_strength_1> 
0.0 
 
>  <oscillator_strength_2> 
0.0 
 
>  <oscillator_strength_3> 
0.0012 
 
>  <oscillator_strength_4> 
0.0042 
 
>  <open_babel_can_smiles> 
CCC[C@]1(CC=C)C(=N[C](=[N]=C1O)=O)O 
 
>  <mulliken_charges> 
29 
1   -0.32482 
2   -0.447344 
3   -0.052852 
4   -0.275039 
5   -0.325789 
6   -0.275969 
7   0.55085 
8   0.564282 
9   0.62239 
10   -0.155115 
11   -0.470676 
12   -0.470676 
13   -0.581202 
14   -0.579011 
15   -0.431219 
16   0.162875 
17   0.144321 
18   0.163723 
19   0.146973 
20   0.146657 
21   0.16295 
22   0.17062 
23   0.169819 
24   0.140807 
25   0.146419 
26   0.132305 
27   0.133539 
28   0.415996 
29   0.415185 
 
>  <lowdin_charges> 
29 
1   -0.310501 
2   -0.441744 
3   -0.16289 
4   -0.283109 
5   -0.26925 
6   -0.274815 
7   0.143673 
8   0.149946 
9   0.170387 
10   -0.063165 
11   -0.182138 
12   -0.180329 
13   -0.333026 
14   -0.32988 
15   -0.206837 
16   0.170229 
17   0.158369 
18   0.159982 
19   0.14981 
20   0.149532 
21   0.168174 
22   0.159862 
23   0.159504 
24   0.149406 
25   0.150724 
26   0.141923 
27   0.142765 
28   0.3569 
29   0.356499 
 
$$$$ 
 
