PCCDB-ID:  61829 
public computational chemistry database (PCCDB) project, http://pccdb.org 
 
 16 15  0  0  1  0  0  0  0  0999 V2000 
    4.0093    1.1251    0.7785 C   0  0  0  0  0  0  0  0  0  0  0  0 
    3.5874    0.1968   -0.3630 C   0  0  0  0  0  0  0  0  0  0  0  0 
    3.0382   -2.2166   -1.0608 C   0  0  0  0  0  0  0  0  0  0  0  0 
    3.7672   -1.3006   -0.0623 C   0  0  1  0  0  0  0  0  0  0  0  0 
    3.6137   -2.1537   -2.8128 S   0  0  0  0  0  0  0  0  0  0  0  0 
    5.5353   -1.7975    0.1778 S   0  0  0  0  0  0  0  0  0  0  0  0 
    3.8501    2.1732    0.5024 H   0  0  0  0  0  0  0  0  0  0  0  0 
    5.0680    0.9934    1.0221 H   0  0  0  0  0  0  0  0  0  0  0  0 
    3.4265    0.9269    1.6865 H   0  0  0  0  0  0  0  0  0  0  0  0 
    4.1445    0.4503   -1.2735 H   0  0  0  0  0  0  0  0  0  0  0  0 
    2.5236    0.3663   -0.5912 H   0  0  0  0  0  0  0  0  0  0  0  0 
    1.9647   -1.9983   -1.0452 H   0  0  0  0  0  0  0  0  0  0  0  0 
    3.1696   -3.2618   -0.7702 H   0  0  0  0  0  0  0  0  0  0  0  0 
    3.3245   -1.5124    0.9208 H   0  0  0  0  0  0  0  0  0  0  0  0 
    3.0862   -0.9501   -3.1224 H   0  0  0  0  0  0  0  0  0  0  0  0 
    5.8811   -1.6923   -1.1248 H   0  0  0  0  0  0  0  0  0  0  0  0 
  1  8  1  0  0  0  0 
  1  9  1  0  0  0  0 
  2  4  1  0  0  0  0 
  2  1  1  0  0  0  0 
  3 12  1  0  0  0  0 
  3 13  1  0  0  0  0 
  3  4  1  0  0  0  0 
  4  6  1  0  0  0  0 
  4 14  1  1  0  0  0 
  5  3  1  0  0  0  0 
  7  1  1  0  0  0  0 
 10  2  1  0  0  0  0 
 11  2  1  0  0  0  0 
 15  5  1  0  0  0  0 
 16  6  1  0  0  0  0 
M  END 
>  <HBA> 
2 
 
>  <HBD> 
2 
 
>  <TPSA> 
77.6 
 
>  <cid> 
61829 
 
>  <dipole> 
2.42 
 
>  <excitation_energy_1> 
5.394 
 
>  <excitation_energy_2> 
5.536 
 
>  <excitation_energy_3> 
5.675 
 
>  <excitation_energy_4> 
5.825 
 
>  <homo_energy> 
-6.43 
 
>  <homo_lumo_gap> 
6.969 
 
>  <logP> 
1.625 
 
>  <lumo_energy> 
0.539 
 
>  <melting_point> 
15.28 
 
>  <molecular_refractivity> 
37.2 
 
>  <oscillator_strength_1> 
0.0055 
 
>  <oscillator_strength_2> 
0.0213 
 
>  <oscillator_strength_3> 
0.0083 
 
>  <oscillator_strength_4> 
0.0266 
 
>  <open_babel_can_smiles> 
CC[C@@H](CS)S 
 
>  <mulliken_charges> 
16 
1   -0.44811 
2   -0.246427 
3   -0.415679 
4   -0.226984 
5   -0.079998 
6   -0.097784 
7   0.145688 
8   0.176494 
9   0.140902 
10   0.148206 
11   0.133486 
12   0.180376 
13   0.200251 
14   0.172469 
15   0.099208 
16   0.117902 
 
>  <lowdin_charges> 
16 
1   -0.444287 
2   -0.277993 
3   -0.374314 
4   -0.223678 
5   -0.080005 
6   -0.096191 
7   0.15119 
8   0.162685 
9   0.146835 
10   0.149921 
11   0.140381 
12   0.162529 
13   0.178386 
14   0.164564 
15   0.113976 
16   0.125999 
 
$$$$ 
 
