PCCDB-ID:  62090 
public computational chemistry database (PCCDB) project, http://pccdb.org 
 
 29 28  0  0  1  0  0  0  0  0999 V2000 
    2.4766    2.7377   -1.6319 C   0  0  0  0  0  0  0  0  0  0  0  0 
    8.3080    3.2656   -3.5640 C   0  0  0  0  0  0  0  0  0  0  0  0 
    5.4912    1.3489    0.4676 C   0  0  0  0  0  0  0  0  0  0  0  0 
    7.3932    0.2305   -3.5437 C   0  0  0  0  0  0  0  0  0  0  0  0 
    3.2431    2.0270   -0.5157 C   0  0  1  0  0  0  0  0  0  0  0  0 
    6.8632    2.7716   -3.4054 C   0  0  2  0  0  0  0  0  0  0  0  0 
    4.7642    1.9245   -0.7515 C   0  0  2  0  0  0  0  0  0  0  0  0 
    6.7897    1.3804   -2.7306 C   0  0  1  0  0  0  0  0  0  0  0  0 
    3.1020    2.7441    0.7161 O   0  0  0  0  0  0  0  0  0  0  0  0 
    6.0582    2.8612   -5.0727 S   0  0  0  0  0  0  0  0  0  0  0  0 
    5.0599    0.8935   -2.2684 S   0  0  0  0  0  0  0  0  0  0  0  0 
    2.5371    2.1931   -2.5777 H   0  0  0  0  0  0  0  0  0  0  0  0 
    2.8723    3.7488   -1.7802 H   0  0  0  0  0  0  0  0  0  0  0  0 
    1.4158    2.8243   -1.3627 H   0  0  0  0  0  0  0  0  0  0  0  0 
    8.8284    3.2243   -2.5996 H   0  0  0  0  0  0  0  0  0  0  0  0 
    8.3247    4.3026   -3.9134 H   0  0  0  0  0  0  0  0  0  0  0  0 
    8.8706    2.6598   -4.2813 H   0  0  0  0  0  0  0  0  0  0  0  0 
    5.1135    0.3482    0.7040 H   0  0  0  0  0  0  0  0  0  0  0  0 
    5.3338    1.9941    1.3362 H   0  0  0  0  0  0  0  0  0  0  0  0 
    6.5682    1.2671    0.2873 H   0  0  0  0  0  0  0  0  0  0  0  0 
    8.4263    0.4591   -3.8263 H   0  0  0  0  0  0  0  0  0  0  0  0 
    6.8289    0.0539   -4.4638 H   0  0  0  0  0  0  0  0  0  0  0  0 
    7.3959   -0.6904   -2.9538 H   0  0  0  0  0  0  0  0  0  0  0  0 
    2.8467    1.0038   -0.3957 H   0  0  0  0  0  0  0  0  0  0  0  0 
    6.3346    3.4848   -2.7649 H   0  0  0  0  0  0  0  0  0  0  0  0 
    5.1302    2.9380   -0.9578 H   0  0  0  0  0  0  0  0  0  0  0  0 
    7.3436    1.4669   -1.7868 H   0  0  0  0  0  0  0  0  0  0  0  0 
    2.1526    2.8295    0.8940 H   0  0  0  0  0  0  0  0  0  0  0  0 
    4.8497    2.4159   -4.6636 H   0  0  0  0  0  0  0  0  0  0  0  0 
  1 14  1  0  0  0  0 
  1  5  1  0  0  0  0 
  2  6  1  0  0  0  0 
  2 15  1  0  0  0  0 
  3 18  1  0  0  0  0 
  3 19  1  0  0  0  0 
  4 23  1  0  0  0  0 
  4  8  1  0  0  0  0 
  5 24  1  1  0  0  0 
  5  9  1  0  0  0  0 
  6 25  1  1  0  0  0 
  6  8  1  0  0  0  0 
  7 26  1  6  0  0  0 
  7  5  1  0  0  0  0 
  7  3  1  0  0  0  0 
  8 11  1  0  0  0  0 
  8 27  1  1  0  0  0 
  9 28  1  0  0  0  0 
 10 29  1  0  0  0  0 
 10  6  1  0  0  0  0 
 11  7  1  0  0  0  0 
 12  1  1  0  0  0  0 
 13  1  1  0  0  0  0 
 16  2  1  0  0  0  0 
 17  2  1  0  0  0  0 
 20  3  1  0  0  0  0 
 21  4  1  0  0  0  0 
 22  4  1  0  0  0  0 
M  END 
>  <HBA> 
3 
 
>  <HBD> 
2 
 
>  <TPSA> 
84.33 
 
>  <cid> 
62090 
 
>  <dipole> 
1.83 
 
>  <excitation_energy_1> 
5.248 
 
>  <excitation_energy_2> 
5.348 
 
>  <excitation_energy_3> 
5.466 
 
>  <excitation_energy_4> 
5.685 
 
>  <homo_energy> 
-6.071 
 
>  <homo_lumo_gap> 
6.797 
 
>  <logP> 
2.196 
 
>  <lumo_energy> 
0.727 
 
>  <melting_point> 
19.96 
 
>  <molecular_refractivity> 
57.25 
 
>  <oscillator_strength_1> 
0.0007 
 
>  <oscillator_strength_2> 
0.0029 
 
>  <oscillator_strength_3> 
0.0169 
 
>  <oscillator_strength_4> 
0.0134 
 
>  <open_babel_can_smiles> 
C[C@@H]([C@H](S[C@H]([C@H](S)C)C)C)O 
 
>  <mulliken_charges> 
29 
1   -0.465847 
2   -0.462477 
3   -0.437361 
4   -0.452767 
5   0.14581 
6   -0.221446 
7   -0.253643 
8   -0.238775 
9   -0.630421 
10   -0.103215 
11   0.070479 
12   0.170268 
13   0.155124 
14   0.132455 
15   0.152385 
16   0.169886 
17   0.167723 
18   0.154149 
19   0.17773 
20   0.141661 
21   0.153637 
22   0.181913 
23   0.163266 
24   0.125662 
25   0.171974 
26   0.163936 
27   0.165704 
28   0.392456 
29   0.109732 
 
>  <lowdin_charges> 
29 
1   -0.459893 
2   -0.448361 
3   -0.445752 
4   -0.446845 
5   0.002231 
6   -0.220884 
7   -0.220914 
8   -0.219473 
9   -0.464631 
10   -0.107397 
11   0.07098 
12   0.166143 
13   0.155033 
14   0.144353 
15   0.154444 
16   0.163815 
17   0.160687 
18   0.155397 
19   0.167131 
20   0.145909 
21   0.154919 
22   0.168369 
23   0.162245 
24   0.128566 
25   0.157201 
26   0.152278 
27   0.155779 
28   0.342492 
29   0.126177 
 
$$$$ 
 
