PCCDB-ID:  26440 
public computational chemistry database (PCCDB) project, http://pccdb.org 
 
 29 30  0  0  0  0  0  0  0  0999 V2000 
    1.1777   -5.5580    2.3989 C   0  0  0  0  0  0  0  0  0  0  0  0 
    9.5484   -2.9274   -1.5641 C   0  0  0  0  0  0  0  0  0  0  0  0 
    9.2465   -4.0157   -0.7449 C   0  0  0  0  0  0  0  0  0  0  0  0 
    8.5322   -2.0356   -1.9212 C   0  0  0  0  0  0  0  0  0  0  0  0 
    0.7568   -2.4393    0.2402 C   0  0  0  0  0  0  0  0  0  0  0  0 
    0.4662   -3.5173    1.0751 C   0  0  0  0  0  0  0  0  0  0  0  0 
    7.9436   -4.2072   -0.2897 C   0  0  0  0  0  0  0  0  0  0  0  0 
    7.2318   -2.2277   -1.4664 C   0  0  0  0  0  0  0  0  0  0  0  0 
    2.0571   -2.2358   -0.2146 C   0  0  0  0  0  0  0  0  0  0  0  0 
    5.5580   -3.5804   -0.1269 C   0  0  0  0  0  0  0  0  0  0  0  0 
    4.4452   -2.8538   -0.3572 C   0  0  0  0  0  0  0  0  0  0  0  0 
    2.7762   -4.1904    0.9998 C   0  0  0  0  0  0  0  0  0  0  0  0 
    1.4790   -4.4053    1.4679 C   0  0  0  0  0  0  0  0  0  0  0  0 
    6.9070   -3.3208   -0.6383 C   0  0  0  0  0  0  0  0  0  0  0  0 
    3.0956   -3.1098    0.1555 C   0  0  0  0  0  0  0  0  0  0  0  0 
    0.1392   -5.8917    2.3007 H   0  0  0  0  0  0  0  0  0  0  0  0 
    1.3300   -5.2724    3.4484 H   0  0  0  0  0  0  0  0  0  0  0  0 
    1.8286   -6.4160    2.1993 H   0  0  0  0  0  0  0  0  0  0  0  0 
   10.5628   -2.7739   -1.9217 H   0  0  0  0  0  0  0  0  0  0  0  0 
   10.0261   -4.7168   -0.4585 H   0  0  0  0  0  0  0  0  0  0  0  0 
    8.7562   -1.1844   -2.5591 H   0  0  0  0  0  0  0  0  0  0  0  0 
   -0.0343   -1.7571   -0.0600 H   0  0  0  0  0  0  0  0  0  0  0  0 
   -0.5516   -3.6749    1.4245 H   0  0  0  0  0  0  0  0  0  0  0  0 
    7.7162   -5.0581    0.3486 H   0  0  0  0  0  0  0  0  0  0  0  0 
    6.4608   -1.5204   -1.7576 H   0  0  0  0  0  0  0  0  0  0  0  0 
    2.2779   -1.3955   -0.8687 H   0  0  0  0  0  0  0  0  0  0  0  0 
    5.4840   -4.4647    0.5044 H   0  0  0  0  0  0  0  0  0  0  0  0 
    4.5196   -1.9705   -0.9900 H   0  0  0  0  0  0  0  0  0  0  0  0 
    3.5569   -4.8841    1.3011 H   0  0  0  0  0  0  0  0  0  0  0  0 
  1 17  1  0  0  0  0 
  2  3  1  0  0  0  0 
  3 20  1  0  0  0  0 
  3  7  2  0  0  0  0 
  4  2  2  0  0  0  0 
  4  8  1  0  0  0  0 
  5  6  2  0  0  0  0 
  6 23  1  0  0  0  0 
  6 13  1  0  0  0  0 
  7 24  1  0  0  0  0 
  8 14  2  0  0  0  0 
  9 15  2  0  0  0  0 
  9  5  1  0  0  0  0 
 10 27  1  0  0  0  0 
 11 10  2  0  0  0  0 
 11 15  1  0  0  0  0 
 12 29  1  0  0  0  0 
 12 13  2  0  0  0  0 
 13  1  1  0  0  0  0 
 14  7  1  0  0  0  0 
 14 10  1  0  0  0  0 
 15 12  1  0  0  0  0 
 16  1  1  0  0  0  0 
 18  1  1  0  0  0  0 
 19  2  1  0  0  0  0 
 21  4  1  0  0  0  0 
 22  5  1  0  0  0  0 
 25  8  1  0  0  0  0 
 26  9  1  0  0  0  0 
 28 11  1  0  0  0  0 
M  END 
>  <HBA> 
0 
 
>  <HBD> 
0 
 
>  <TPSA> 
0.0 
 
>  <cid> 
26440 
 
>  <dipole> 
0.36 
 
>  <excitation_energy_1> 
3.836 
 
>  <excitation_energy_2> 
4.389 
 
>  <excitation_energy_3> 
4.495 
 
>  <excitation_energy_4> 
4.914 
 
>  <homo_energy> 
-5.459 
 
>  <homo_lumo_gap> 
4.139 
 
>  <logP> 
4.165 
 
>  <lumo_energy> 
-1.32 
 
>  <melting_point> 
72.63 
 
>  <molecular_refractivity> 
66.78 
 
>  <oscillator_strength_1> 
0.9207 
 
>  <oscillator_strength_2> 
0.0186 
 
>  <oscillator_strength_3> 
0.0123 
 
>  <oscillator_strength_4> 
0.0585 
 
>  <open_babel_can_smiles> 
Cc1cccc(c1)/C=C/c1ccccc1 
 
>  <mulliken_charges> 
29 
1   -0.529388 
2   -0.129595 
3   -0.129689 
4   -0.130891 
5   -0.127133 
6   -0.181082 
7   -0.197804 
8   -0.179971 
9   -0.202391 
10   -0.188134 
11   -0.191381 
12   -0.23973 
13   0.180775 
14   0.181913 
15   0.189009 
16   0.156343 
17   0.166366 
18   0.157181 
19   0.129407 
20   0.129798 
21   0.129846 
22   0.128594 
23   0.121603 
24   0.126601 
25   0.129493 
26   0.125215 
27   0.127134 
28   0.126483 
29   0.121429 
 
>  <lowdin_charges> 
29 
1   -0.440833 
2   -0.157627 
3   -0.156658 
4   -0.153326 
5   -0.155034 
6   -0.167592 
7   -0.160799 
8   -0.158185 
9   -0.165952 
10   -0.157698 
11   -0.155779 
12   -0.169007 
13   0.005184 
14   0.000343 
15   0.001406 
16   0.156725 
17   0.160957 
18   0.158561 
19   0.157084 
20   0.158965 
21   0.157989 
22   0.158641 
23   0.153748 
24   0.155676 
25   0.157817 
26   0.155426 
27   0.152851 
28   0.152817 
29   0.154301 
 
$$$$ 
 
