PCCDB-ID:  70938 
public computational chemistry database (PCCDB) project, http://pccdb.org 
 
 13 13  0  0  1  0  0  0  0  0999 V2000 
    1.0102    0.0327   -0.0128 C   0  0  0  0  0  0  0  0  0  0  0  0 
    2.5286    0.1341    0.1678 C   0  0  2  0  0  0  0  0  0  0  0  0 
    3.1161   -1.1259    0.8143 C   0  0  0  0  0  0  0  0  0  0  0  0 
    3.6083    0.6716    1.9786 C   0  0  0  0  0  0  0  0  0  0  0  0 
    2.9373    1.2281    1.0516 N   0  0  0  0  0  0  0  0  0  0  0  0 
    3.0632   -2.2779    0.5055 O   0  0  0  0  0  0  0  0  0  0  0  0 
    4.1905    1.2513    3.0236 O   0  0  0  0  0  0  0  0  0  0  0  0 
    3.7935   -0.6851    1.9640 O   0  0  0  0  0  0  0  0  0  0  0  0 
    0.7639   -0.8235   -0.6479 H   0  0  0  0  0  0  0  0  0  0  0  0 
    0.6335    0.9469   -0.4792 H   0  0  0  0  0  0  0  0  0  0  0  0 
    0.5129   -0.0920    0.9543 H   0  0  0  0  0  0  0  0  0  0  0  0 
    2.9989    0.2587   -0.8176 H   0  0  0  0  0  0  0  0  0  0  0  0 
    4.0104    2.2053    2.9451 H   0  0  0  0  0  0  0  0  0  0  0  0 
  1  2  1  0  0  0  0 
  1 11  1  0  0  0  0 
  2 12  1  6  0  0  0 
  2  3  1  0  0  0  0 
  2  5  1  0  0  0  0 
  3  8  1  0  0  0  0 
  4  7  1  0  0  0  0 
  5  4  2  0  0  0  0 
  6  3  2  0  0  0  0 
  8  4  1  0  0  0  0 
  9  1  1  0  0  0  0 
 10  1  1  0  0  0  0 
 13  7  1  0  0  0  0 
M  END 
>  <HBA> 
4 
 
>  <HBD> 
1 
 
>  <TPSA> 
55.4 
 
>  <cid> 
70938 
 
>  <dipole> 
2.93 
 
>  <excitation_energy_1> 
5.397 
 
>  <excitation_energy_2> 
5.913 
 
>  <excitation_energy_3> 
6.433 
 
>  <excitation_energy_4> 
6.796 
 
>  <homo_energy> 
-7.475 
 
>  <homo_lumo_gap> 
6.855 
 
>  <logP> 
-0.03 
 
>  <lumo_energy> 
-0.62 
 
>  <melting_point> 
68.69 
 
>  <molecular_refractivity> 
27.82 
 
>  <oscillator_strength_1> 
0.0019 
 
>  <oscillator_strength_2> 
0.0407 
 
>  <oscillator_strength_3> 
0.0013 
 
>  <oscillator_strength_4> 
0.0096 
 
>  <open_babel_can_smiles> 
O=C1OC(=N[C@@H]1C)O 
 
>  <mulliken_charges> 
13 
1   -0.4359 
2   -0.091702 
3   0.608724 
4   0.704212 
5   -0.461824 
6   -0.427751 
7   -0.576099 
8   -0.449039 
9   0.172603 
10   0.172074 
11   0.160862 
12   0.189794 
13   0.434046 
 
>  <lowdin_charges> 
13 
1   -0.435605 
2   -0.086704 
3   0.20366 
4   0.186027 
5   -0.262976 
6   -0.189474 
7   -0.315837 
8   -0.148815 
9   0.168316 
10   0.167554 
11   0.159423 
12   0.173864 
13   0.380566 
 
$$$$ 
 
