PCCDB-ID:  14292 
public computational chemistry database (PCCDB) project, http://pccdb.org 
 
 21 21  0  0  0  0  0  0  0  0999 V2000 
    0.9467    0.0817   -0.3993 C   0  0  0  0  0  0  0  0  0  0  0  0 
    3.3461   -0.0058   -1.1429 C   0  0  0  0  0  0  0  0  0  0  0  0 
    2.7095    1.3088    0.9214 C   0  0  0  0  0  0  0  0  0  0  0  0 
    2.6504   -1.1658    0.9959 C   0  0  0  0  0  0  0  0  0  0  0  0 
    3.9421    1.1495    1.7920 C   0  0  0  0  0  0  0  0  0  0  0  0 
    4.0555   -1.1569    1.5960 C   0  0  0  0  0  0  0  0  0  0  0  0 
    2.4065    0.0515    0.0785 C   0  0  0  0  0  0  0  0  0  0  0  0 
    4.5520    0.0670    2.0938 N   0  0  0  0  0  0  0  0  0  0  0  0 
    4.4256    2.2861    2.3415 O   0  0  0  0  0  0  0  0  0  0  0  0 
    4.7246   -2.1670    1.6731 O   0  0  0  0  0  0  0  0  0  0  0  0 
    0.7522    0.9646   -1.0213 H   0  0  0  0  0  0  0  0  0  0  0  0 
    0.2482    0.1033    0.4460 H   0  0  0  0  0  0  0  0  0  0  0  0 
    0.7183   -0.8056   -1.0007 H   0  0  0  0  0  0  0  0  0  0  0  0 
    3.1676    0.8457   -1.8106 H   0  0  0  0  0  0  0  0  0  0  0  0 
    3.1743   -0.9230   -1.7169 H   0  0  0  0  0  0  0  0  0  0  0  0 
    4.4020    0.0097   -0.8511 H   0  0  0  0  0  0  0  0  0  0  0  0 
    2.8250    2.1902    0.2742 H   0  0  0  0  0  0  0  0  0  0  0  0 
    1.8651    1.5247    1.5941 H   0  0  0  0  0  0  0  0  0  0  0  0 
    1.9235   -1.1550    1.8221 H   0  0  0  0  0  0  0  0  0  0  0  0 
    2.5200   -2.1084    0.4572 H   0  0  0  0  0  0  0  0  0  0  0  0 
    3.9131    3.0463    2.0221 H   0  0  0  0  0  0  0  0  0  0  0  0 
  1  7  1  0  0  0  0 
  1 12  1  0  0  0  0 
  2 16  1  0  0  0  0 
  2  7  1  0  0  0  0 
  3 18  1  0  0  0  0 
  3  5  1  0  0  0  0 
  4  6  1  0  0  0  0 
  4 19  1  0  0  0  0 
  5  8  2  0  0  0  0 
  5  9  1  0  0  0  0 
  6 10  2  0  0  0  0 
  6  8  1  0  0  0  0 
  7  3  1  0  0  0  0 
  7  4  1  0  0  0  0 
 11  1  1  0  0  0  0 
 13  1  1  0  0  0  0 
 14  2  1  0  0  0  0 
 15  2  1  0  0  0  0 
 17  3  1  0  0  0  0 
 20  4  1  0  0  0  0 
 21  9  1  0  0  0  0 
M  END 
>  <HBA> 
3 
 
>  <HBD> 
1 
 
>  <TPSA> 
46.17 
 
>  <cid> 
14292 
 
>  <dipole> 
6.9 
 
>  <excitation_energy_1> 
4.017 
 
>  <excitation_energy_2> 
4.903 
 
>  <excitation_energy_3> 
5.601 
 
>  <excitation_energy_4> 
6.086 
 
>  <homo_energy> 
-6.528 
 
>  <homo_lumo_gap> 
5.494 
 
>  <logP> 
0.778 
 
>  <lumo_energy> 
-1.034 
 
>  <melting_point> 
84.0 
 
>  <molecular_refractivity> 
40.51 
 
>  <oscillator_strength_1> 
0.001 
 
>  <oscillator_strength_2> 
0.0003 
 
>  <oscillator_strength_3> 
0.009 
 
>  <oscillator_strength_4> 
0.0358 
 
>  <open_babel_can_smiles> 
OC1=NC(=O)CC(C1)(C)C 
 
>  <mulliken_charges> 
21 
1   -0.451643 
2   -0.458772 
3   -0.380361 
4   -0.352977 
5   0.513217 
6   0.530285 
7   0.080725 
8   -0.457605 
9   -0.557457 
10   -0.446052 
11   0.143595 
12   0.142913 
13   0.15467 
14   0.142344 
15   0.157587 
16   0.16733 
17   0.155665 
18   0.177011 
19   0.157805 
20   0.167727 
21   0.413992 
 
>  <lowdin_charges> 
21 
1   -0.442843 
2   -0.446866 
3   -0.317043 
4   -0.312401 
5   0.156785 
6   0.162397 
7   0.01276 
8   -0.195683 
9   -0.331294 
10   -0.230743 
11   0.150454 
12   0.149476 
13   0.157086 
14   0.149973 
15   0.158374 
16   0.15885 
17   0.158824 
18   0.170264 
19   0.162298 
20   0.16825 
21   0.361082 
 
$$$$ 
 
