PCCDB-ID:  69301 
public computational chemistry database (PCCDB) project, http://pccdb.org 
 
 24 24  0  0  0  0  0  0  0  0999 V2000 
    3.1028    1.2925   -0.3987 C   0  0  0  0  0  0  0  0  0  0  0  0 
    5.6446   -2.6550   -4.7213 C   0  0  0  0  0  0  0  0  0  0  0  0 
    2.3783   -5.0160    0.2267 C   0  0  0  0  0  0  0  0  0  0  0  0 
    4.0252   -0.8132   -2.0268 C   0  0  0  0  0  0  0  0  0  0  0  0 
    2.9519   -2.3471   -0.4655 C   0  0  0  0  0  0  0  0  0  0  0  0 
    4.1443   -3.2185   -2.4046 C   0  0  0  0  0  0  0  0  0  0  0  0 
    3.2796   -1.0411   -0.8754 C   0  0  0  0  0  0  0  0  0  0  0  0 
    4.4540   -1.9178   -2.7864 C   0  0  0  0  0  0  0  0  0  0  0  0 
    3.3880   -3.4201   -1.2349 C   0  0  0  0  0  0  0  0  0  0  0  0 
    2.8077   -0.0524   -0.0593 O   0  0  0  0  0  0  0  0  0  0  0  0 
    5.1797   -1.5974   -3.8987 O   0  0  0  0  0  0  0  0  0  0  0  0 
    3.1326   -4.7292   -0.9394 O   0  0  0  0  0  0  0  0  0  0  0  0 
    2.6433    1.9055    0.3791 H   0  0  0  0  0  0  0  0  0  0  0  0 
    2.6788    1.5649   -1.3742 H   0  0  0  0  0  0  0  0  0  0  0  0 
    4.1852    1.4764   -0.4149 H   0  0  0  0  0  0  0  0  0  0  0  0 
    6.1903   -2.1805   -5.5393 H   0  0  0  0  0  0  0  0  0  0  0  0 
    4.8127   -3.2426   -5.1314 H   0  0  0  0  0  0  0  0  0  0  0  0 
    6.3205   -3.3251   -4.1739 H   0  0  0  0  0  0  0  0  0  0  0  0 
    2.2978   -6.1039    0.2715 H   0  0  0  0  0  0  0  0  0  0  0  0 
    1.3726   -4.5785    0.1743 H   0  0  0  0  0  0  0  0  0  0  0  0 
    2.8807   -4.6507    1.1321 H   0  0  0  0  0  0  0  0  0  0  0  0 
    4.2916    0.1783   -2.3683 H   0  0  0  0  0  0  0  0  0  0  0  0 
    2.3691   -2.4697    0.4380 H   0  0  0  0  0  0  0  0  0  0  0  0 
    4.4589   -4.0874   -2.9676 H   0  0  0  0  0  0  0  0  0  0  0  0 
  1 10  1  0  0  0  0 
  1 13  1  0  0  0  0 
  2 18  1  0  0  0  0 
  2 11  1  0  0  0  0 
  3 19  1  0  0  0  0 
  3 21  1  0  0  0  0 
  4  7  2  0  0  0  0 
  5 23  1  0  0  0  0 
  6  9  1  0  0  0  0 
  7  5  1  0  0  0  0 
  7 10  1  0  0  0  0 
  8  6  2  0  0  0  0 
  8  4  1  0  0  0  0 
  9 12  1  0  0  0  0 
  9  5  2  0  0  0  0 
 11  8  1  0  0  0  0 
 12  3  1  0  0  0  0 
 14  1  1  0  0  0  0 
 15  1  1  0  0  0  0 
 16  2  1  0  0  0  0 
 17  2  1  0  0  0  0 
 20  3  1  0  0  0  0 
 22  4  1  0  0  0  0 
 24  6  1  0  0  0  0 
M  END 
>  <HBA> 
3 
 
>  <HBD> 
0 
 
>  <TPSA> 
27.69 
 
>  <cid> 
69301 
 
>  <dipole> 
0.01 
 
>  <excitation_energy_1> 
5.066 
 
>  <excitation_energy_2> 
5.455 
 
>  <excitation_energy_3> 
5.455 
 
>  <excitation_energy_4> 
5.633 
 
>  <homo_energy> 
-5.616 
 
>  <homo_lumo_gap> 
6.34 
 
>  <logP> 
1.712 
 
>  <lumo_energy> 
0.724 
 
>  <melting_point> 
20.64 
 
>  <molecular_refractivity> 
45.92 
 
>  <oscillator_strength_1> 
0.0 
 
>  <oscillator_strength_2> 
0.0 
 
>  <oscillator_strength_3> 
0.0 
 
>  <oscillator_strength_4> 
0.0265 
 
>  <open_babel_can_smiles> 
COc1cc(OC)cc(c1)OC 
 
>  <mulliken_charges> 
24 
1   -0.211882 
2   -0.211805 
3   -0.21192 
4   -0.264222 
5   -0.264108 
6   -0.26424 
7   0.384744 
8   0.384942 
9   0.384767 
10   -0.513985 
11   -0.514129 
12   -0.513929 
13   0.166145 
14   0.152798 
15   0.152918 
16   0.166146 
17   0.152872 
18   0.152833 
19   0.166139 
20   0.152868 
21   0.152891 
22   0.133404 
23   0.133374 
24   0.133379 
 
>  <lowdin_charges> 
24 
1   -0.275451 
2   -0.281642 
3   -0.274945 
4   -0.264124 
5   -0.262611 
6   -0.265225 
7   0.118083 
8   0.119549 
9   0.118769 
10   -0.199728 
11   -0.199171 
12   -0.199376 
13   0.16215 
14   0.145382 
15   0.143908 
16   0.161868 
17   0.147043 
18   0.147211 
19   0.158732 
20   0.144778 
21   0.146141 
22   0.169011 
23   0.169398 
24   0.170252 
 
$$$$ 
 
