PCCDB-ID:  24058 
public computational chemistry database (PCCDB) project, http://pccdb.org 
 
 39 38  0  0  1  0  0  0  0  0999 V2000 
    0.1042   -0.7620    1.3044 C   0  0  0  0  0  0  0  0  0  0  0  0 
    7.4323    1.8457    4.4704 C   0  0  0  0  0  0  0  0  0  0  0  0 
    5.7735   -4.7960    2.0749 C   0  0  0  0  0  0  0  0  0  0  0  0 
    1.5743   -0.5497    0.9298 C   0  0  0  0  0  0  0  0  0  0  0  0 
    8.4766    0.7592    4.1868 C   0  0  0  0  0  0  0  0  0  0  0  0 
    4.7915   -3.8191    1.4195 C   0  0  0  0  0  0  0  0  0  0  0  0 
    2.5105   -1.5977    1.5474 C   0  0  0  0  0  0  0  0  0  0  0  0 
    8.0725   -0.6477    4.6529 C   0  0  0  0  0  0  0  0  0  0  0  0 
    3.9835   -1.3750    1.1772 C   0  0  0  0  0  0  0  0  0  0  0  0 
    6.8942   -1.2576    3.8817 C   0  0  0  0  0  0  0  0  0  0  0  0 
    4.9793   -2.3481    1.8610 C   0  0  2  0  0  0  0  0  0  0  0  0 
    6.4118   -1.8675    1.6354 C   0  0  0  0  0  0  0  0  0  0  0  0 
    7.2365   -1.3951    2.4710 N   0  0  0  0  0  0  0  0  0  0  0  0 
    6.8520   -1.9485    0.3371 O   0  0  0  0  0  0  0  0  0  0  0  0 
   -0.5375    0.0010    0.8497 H   0  0  0  0  0  0  0  0  0  0  0  0 
   -0.0393   -0.7132    2.3908 H   0  0  0  0  0  0  0  0  0  0  0  0 
   -0.2545   -1.7425    0.9675 H   0  0  0  0  0  0  0  0  0  0  0  0 
    7.7941    2.8306    4.1526 H   0  0  0  0  0  0  0  0  0  0  0  0 
    7.1999    1.9073    5.5416 H   0  0  0  0  0  0  0  0  0  0  0  0 
    6.4923    1.6591    3.9378 H   0  0  0  0  0  0  0  0  0  0  0  0 
    5.5700   -5.8247    1.7579 H   0  0  0  0  0  0  0  0  0  0  0  0 
    5.6919   -4.7625    3.1679 H   0  0  0  0  0  0  0  0  0  0  0  0 
    6.8099   -4.5608    1.8102 H   0  0  0  0  0  0  0  0  0  0  0  0 
    1.8935    0.4526    1.2481 H   0  0  0  0  0  0  0  0  0  0  0  0 
    1.6803   -0.5692   -0.1641 H   0  0  0  0  0  0  0  0  0  0  0  0 
    9.4183    1.0332    4.6812 H   0  0  0  0  0  0  0  0  0  0  0  0 
    8.6871    0.7183    3.1116 H   0  0  0  0  0  0  0  0  0  0  0  0 
    3.7651   -4.1225    1.6558 H   0  0  0  0  0  0  0  0  0  0  0  0 
    4.8733   -3.8976    0.3239 H   0  0  0  0  0  0  0  0  0  0  0  0 
    2.1842   -2.5968    1.2285 H   0  0  0  0  0  0  0  0  0  0  0  0 
    2.4059   -1.5760    2.6423 H   0  0  0  0  0  0  0  0  0  0  0  0 
    7.8169   -0.6285    5.7227 H   0  0  0  0  0  0  0  0  0  0  0  0 
    8.9321   -1.3210    4.5428 H   0  0  0  0  0  0  0  0  0  0  0  0 
    4.2650   -0.3483    1.4475 H   0  0  0  0  0  0  0  0  0  0  0  0 
    4.0935   -1.4368    0.0837 H   0  0  0  0  0  0  0  0  0  0  0  0 
    6.0014   -0.6270    4.0171 H   0  0  0  0  0  0  0  0  0  0  0  0 
    6.6533   -2.2351    4.3285 H   0  0  0  0  0  0  0  0  0  0  0  0 
    4.7941   -2.3046    2.9401 H   0  0  0  0  0  0  0  0  0  0  0  0 
    6.1437   -2.3106   -0.2163 H   0  0  0  0  0  0  0  0  0  0  0  0 
  1 16  1  0  0  0  0 
  2 19  1  0  0  0  0 
  3 22  1  0  0  0  0 
  4 24  1  0  0  0  0 
  4  1  1  0  0  0  0 
  4  7  1  0  0  0  0 
  5  2  1  0  0  0  0 
  5  8  1  0  0  0  0 
  5 26  1  0  0  0  0 
  6 28  1  0  0  0  0 
  6 11  1  0  0  0  0 
  6  3  1  0  0  0  0 
  7 31  1  0  0  0  0 
  8 32  1  0  0  0  0 
  9 34  1  0  0  0  0 
  9  7  1  0  0  0  0 
  9 11  1  0  0  0  0 
 10 36  1  0  0  0  0 
 10 37  1  0  0  0  0 
 10  8  1  0  0  0  0 
 11 38  1  1  0  0  0 
 12 11  1  0  0  0  0 
 12 13  2  0  0  0  0 
 13 10  1  0  0  0  0 
 14 12  1  0  0  0  0 
 15  1  1  0  0  0  0 
 17  1  1  0  0  0  0 
 18  2  1  0  0  0  0 
 20  2  1  0  0  0  0 
 21  3  1  0  0  0  0 
 23  3  1  0  0  0  0 
 25  4  1  0  0  0  0 
 27  5  1  0  0  0  0 
 29  6  1  0  0  0  0 
 30  7  1  0  0  0  0 
 33  8  1  0  0  0  0 
 35  9  1  0  0  0  0 
 39 14  1  0  0  0  0 
M  END 
>  <HBA> 
2 
 
>  <HBD> 
1 
 
>  <TPSA> 
29.1 
 
>  <cid> 
24058 
 
>  <dipole> 
3.87 
 
>  <excitation_energy_1> 
5.426 
 
>  <excitation_energy_2> 
5.832 
 
>  <excitation_energy_3> 
5.984 
 
>  <excitation_energy_4> 
6.022 
 
>  <homo_energy> 
-6.321 
 
>  <homo_lumo_gap> 
6.985 
 
>  <logP> 
3.51 
 
>  <lumo_energy> 
0.664 
 
>  <melting_point> 
18.02 
 
>  <molecular_refractivity> 
62.8 
 
>  <oscillator_strength_1> 
0.0018 
 
>  <oscillator_strength_2> 
0.0011 
 
>  <oscillator_strength_3> 
0.0023 
 
>  <oscillator_strength_4> 
0.0223 
 
>  <open_babel_can_smiles> 
CCCC/N=C(\[C@@H](CCCC)CC)/O 
 
>  <mulliken_charges> 
39 
1   -0.442846 
2   -0.444632 
3   -0.453457 
4   -0.24941 
5   -0.249019 
6   -0.269609 
7   -0.254543 
8   -0.249128 
9   -0.264965 
10   -0.14737 
11   -0.190906 
12   0.511781 
13   -0.433751 
14   -0.600333 
15   0.146012 
16   0.143701 
17   0.14226 
18   0.140155 
19   0.133963 
20   0.139659 
21   0.147625 
22   0.148407 
23   0.171116 
24   0.135746 
25   0.132882 
26   0.124496 
27   0.161862 
28   0.149729 
29   0.117559 
30   0.135303 
31   0.132951 
32   0.11524 
33   0.137409 
34   0.151711 
35   0.11962 
36   0.130113 
37   0.129925 
38   0.144994 
39   0.40575 
 
>  <lowdin_charges> 
39 
1   -0.443342 
2   -0.445325 
3   -0.444831 
4   -0.268756 
5   -0.275212 
6   -0.27217 
7   -0.273996 
8   -0.277392 
9   -0.271436 
10   -0.204187 
11   -0.161651 
12   0.128744 
13   -0.213522 
14   -0.376005 
15   0.152848 
16   0.145662 
17   0.146452 
18   0.148337 
19   0.140166 
20   0.143466 
21   0.152594 
22   0.148322 
23   0.159595 
24   0.140735 
25   0.137931 
26   0.139287 
27   0.153185 
28   0.149162 
29   0.129194 
30   0.13982 
31   0.138233 
32   0.132773 
33   0.147502 
34   0.150889 
35   0.132065 
36   0.131713 
37   0.134768 
38   0.153951 
39   0.350429 
 
$$$$ 
 
