PCCDB-ID:  11038 
public computational chemistry database (PCCDB) project, http://pccdb.org 
 
 27 28  0  0  1  0  0  0  0  0999 V2000 
    0.9092    0.0556    0.0503 C   0  0  0  0  0  0  0  0  0  0  0  0 
    2.4422   -0.2876   -2.9721 C   0  0  0  0  0  0  0  0  0  0  0  0 
    3.5676   -2.4941   -2.8110 C   0  0  0  0  0  0  0  0  0  0  0  0 
    4.5252   -1.4354   -0.2922 C   0  0  0  0  0  0  0  0  0  0  0  0 
    4.4905    0.9217   -1.1317 C   0  0  0  0  0  0  0  0  0  0  0  0 
    2.4321   -0.1208    0.1292 C   0  0  1  0  0  0  0  0  0  0  0  0 
    4.6848   -0.5419   -1.5503 C   0  0  2  0  0  0  0  0  0  0  0  0 
    2.9953   -1.3801   -0.5613 C   0  0  1  0  0  0  0  0  0  0  0  0 
    3.1867    1.1386   -0.3455 C   0  0  0  0  0  0  0  0  0  0  0  0 
    3.3410   -1.1578   -2.0854 C   0  0  0  0  0  0  0  0  0  0  0  0 
    2.7771    2.2580   -0.1049 O   0  0  0  0  0  0  0  0  0  0  0  0 
    0.4049   -0.7697    0.5650 H   0  0  0  0  0  0  0  0  0  0  0  0 
    0.5536    0.0743   -0.9842 H   0  0  0  0  0  0  0  0  0  0  0  0 
    0.6176    0.9959    0.5255 H   0  0  0  0  0  0  0  0  0  0  0  0 
    2.9287   -0.1139   -3.9409 H   0  0  0  0  0  0  0  0  0  0  0  0 
    2.2087    0.6929   -2.5483 H   0  0  0  0  0  0  0  0  0  0  0  0 
    1.4894   -0.7925   -3.1737 H   0  0  0  0  0  0  0  0  0  0  0  0 
    4.0328   -2.3243   -3.7901 H   0  0  0  0  0  0  0  0  0  0  0  0 
    2.6110   -3.0033   -2.9832 H   0  0  0  0  0  0  0  0  0  0  0  0 
    4.2109   -3.1830   -2.2557 H   0  0  0  0  0  0  0  0  0  0  0  0 
    4.8748   -1.0194    0.6608 H   0  0  0  0  0  0  0  0  0  0  0  0 
    4.9525   -2.4329   -0.4119 H   0  0  0  0  0  0  0  0  0  0  0  0 
    4.4760    1.6094   -1.9855 H   0  0  0  0  0  0  0  0  0  0  0  0 
    5.3224    1.2484   -0.4912 H   0  0  0  0  0  0  0  0  0  0  0  0 
    2.6871   -0.2042    1.1992 H   0  0  0  0  0  0  0  0  0  0  0  0 
    5.5812   -0.6691   -2.1690 H   0  0  0  0  0  0  0  0  0  0  0  0 
    2.3964   -2.2645   -0.3116 H   0  0  0  0  0  0  0  0  0  0  0  0 
  1  6  1  0  0  0  0 
  1 14  1  0  0  0  0 
  1 12  1  0  0  0  0 
  2 16  1  0  0  0  0 
  2 10  1  0  0  0  0 
  3 20  1  0  0  0  0 
  3 10  1  0  0  0  0 
  4 21  1  0  0  0  0 
  5 24  1  0  0  0  0 
  5  9  1  0  0  0  0 
  6 25  1  1  0  0  0 
  7 26  1  6  0  0  0 
  7  5  1  0  0  0  0 
  7  4  1  0  0  0  0 
  8 27  1  1  0  0  0 
  8  4  1  0  0  0  0 
  8  6  1  0  0  0  0 
  9 11  2  0  0  0  0 
  9  6  1  0  0  0  0 
 10  7  1  0  0  0  0 
 10  8  1  0  0  0  0 
 13  1  1  0  0  0  0 
 15  2  1  0  0  0  0 
 17  2  1  0  0  0  0 
 18  3  1  0  0  0  0 
 19  3  1  0  0  0  0 
 22  4  1  0  0  0  0 
 23  5  1  0  0  0  0 
M  END 
>  <HBA> 
1 
 
>  <HBD> 
0 
 
>  <TPSA> 
17.07 
 
>  <cid> 
11038 
 
>  <dipole> 
2.79 
 
>  <excitation_energy_1> 
4.133 
 
>  <excitation_energy_2> 
5.985 
 
>  <excitation_energy_3> 
6.21 
 
>  <excitation_energy_4> 
6.335 
 
>  <homo_energy> 
-6.346 
 
>  <homo_lumo_gap> 
5.948 
 
>  <logP> 
2.258 
 
>  <lumo_energy> 
-0.397 
 
>  <melting_point> 
56.01 
 
>  <molecular_refractivity> 
45.9 
 
>  <oscillator_strength_1> 
0.0 
 
>  <oscillator_strength_2> 
0.0004 
 
>  <oscillator_strength_3> 
0.0003 
 
>  <oscillator_strength_4> 
0.0089 
 
>  <open_babel_can_smiles> 
O=C1C[C@H]2C[C@@H]([C@@H]1C)C2(C)C 
 
>  <mulliken_charges> 
27 
1   -0.456344 
2   -0.482412 
3   -0.464822 
4   -0.295589 
5   -0.348812 
6   -0.155605 
7   -0.114856 
8   -0.122727 
9   0.432034 
10   0.123589 
11   -0.463878 
12   0.140542 
13   0.152748 
14   0.172992 
15   0.143903 
16   0.159041 
17   0.146725 
18   0.142751 
19   0.143681 
20   0.144523 
21   0.129126 
22   0.144946 
23   0.169911 
24   0.167512 
25   0.157111 
26   0.117884 
27   0.116026 
 
>  <lowdin_charges> 
27 
1   -0.444105 
2   -0.452917 
3   -0.441939 
4   -0.290608 
5   -0.311188 
6   -0.155439 
7   -0.135235 
8   -0.136208 
9   0.158006 
10   0.004602 
11   -0.238248 
12   0.15055 
13   0.152523 
14   0.166739 
15   0.151656 
16   0.156301 
17   0.152157 
18   0.14868 
19   0.149524 
20   0.151391 
21   0.137852 
22   0.150455 
23   0.168316 
24   0.169501 
25   0.161027 
26   0.138325 
27   0.138285 
 
$$$$ 
 
