PCCDB-ID:  44824 
public computational chemistry database (PCCDB) project, http://pccdb.org 
 
 27 26  0  0  0  0  0  0  0  0999 V2000 
    5.5003    1.1884    4.2361 C   0  0  0  0  0  0  0  0  0  0  0  0 
    5.8287    3.2427   -4.0815 C   0  0  0  0  0  0  0  0  0  0  0  0 
    5.9674    0.8153    2.8252 C   0  0  0  0  0  0  0  0  0  0  0  0 
    4.8130    0.7412    1.8152 C   0  0  0  0  0  0  0  0  0  0  0  0 
    5.2151    0.2933    0.3995 C   0  0  0  0  0  0  0  0  0  0  0  0 
    6.1203    1.2855   -0.3466 C   0  0  0  0  0  0  0  0  0  0  0  0 
    6.5144    0.8415   -1.7643 C   0  0  0  0  0  0  0  0  0  0  0  0 
    5.3709    0.7727   -2.7879 C   0  0  0  0  0  0  0  0  0  0  0  0 
    4.5198    2.3614   -3.1593 S   0  0  0  0  0  0  0  0  0  0  0  0 
    6.3403    1.2295    4.9390 H   0  0  0  0  0  0  0  0  0  0  0  0 
    4.7785    0.4574    4.6211 H   0  0  0  0  0  0  0  0  0  0  0  0 
    5.0110    2.1702    4.2448 H   0  0  0  0  0  0  0  0  0  0  0  0 
    6.1539    2.6648   -4.9527 H   0  0  0  0  0  0  0  0  0  0  0  0 
    6.6918    3.4747   -3.4511 H   0  0  0  0  0  0  0  0  0  0  0  0 
    5.3904    4.1821   -4.4288 H   0  0  0  0  0  0  0  0  0  0  0  0 
    6.4826   -0.1560    2.8552 H   0  0  0  0  0  0  0  0  0  0  0  0 
    6.7140    1.5464    2.4887 H   0  0  0  0  0  0  0  0  0  0  0  0 
    4.3183    1.7222    1.7573 H   0  0  0  0  0  0  0  0  0  0  0  0 
    4.0561    0.0436    2.2017 H   0  0  0  0  0  0  0  0  0  0  0  0 
    4.2969    0.1303   -0.1805 H   0  0  0  0  0  0  0  0  0  0  0  0 
    5.7174   -0.6845    0.4572 H   0  0  0  0  0  0  0  0  0  0  0  0 
    7.0436    1.4393    0.2265 H   0  0  0  0  0  0  0  0  0  0  0  0 
    5.6219    2.2626   -0.4006 H   0  0  0  0  0  0  0  0  0  0  0  0 
    6.9725   -0.1582   -1.7177 H   0  0  0  0  0  0  0  0  0  0  0  0 
    7.2962    1.5103   -2.1472 H   0  0  0  0  0  0  0  0  0  0  0  0 
    4.5708    0.1130   -2.4368 H   0  0  0  0  0  0  0  0  0  0  0  0 
    5.7343    0.3534   -3.7335 H   0  0  0  0  0  0  0  0  0  0  0  0 
  1 12  1  0  0  0  0 
  1 11  1  0  0  0  0 
  1 10  1  0  0  0  0 
  2 14  1  0  0  0  0 
  2  9  1  0  0  0  0 
  3 16  1  0  0  0  0 
  3  1  1  0  0  0  0 
  4 19  1  0  0  0  0 
  4  3  1  0  0  0  0 
  5 21  1  0  0  0  0 
  5  4  1  0  0  0  0 
  6 22  1  0  0  0  0 
  6  5  1  0  0  0  0 
  7 24  1  0  0  0  0 
  7  6  1  0  0  0  0 
  8 26  1  0  0  0  0 
  8  7  1  0  0  0  0 
  9  8  1  0  0  0  0 
 13  2  1  0  0  0  0 
 15  2  1  0  0  0  0 
 17  3  1  0  0  0  0 
 18  4  1  0  0  0  0 
 20  5  1  0  0  0  0 
 23  6  1  0  0  0  0 
 25  7  1  0  0  0  0 
 27  8  1  0  0  0  0 
M  END 
>  <HBA> 
1 
 
>  <HBD> 
0 
 
>  <TPSA> 
25.3 
 
>  <cid> 
44824 
 
>  <dipole> 
1.69 
 
>  <excitation_energy_1> 
5.091 
 
>  <excitation_energy_2> 
5.363 
 
>  <excitation_energy_3> 
5.764 
 
>  <excitation_energy_4> 
5.911 
 
>  <homo_energy> 
-5.859 
 
>  <homo_lumo_gap> 
7.157 
 
>  <logP> 
3.32 
 
>  <lumo_energy> 
1.298 
 
>  <melting_point> 
-18.92 
 
>  <molecular_refractivity> 
48.16 
 
>  <oscillator_strength_1> 
0.0005 
 
>  <oscillator_strength_2> 
0.0133 
 
>  <oscillator_strength_3> 
0.021 
 
>  <oscillator_strength_4> 
0.0019 
 
>  <open_babel_can_smiles> 
CCCCCCCSC 
 
>  <mulliken_charges> 
27 
1   -0.441291 
2   -0.582517 
3   -0.248824 
4   -0.248176 
5   -0.258017 
6   -0.257638 
7   -0.257462 
8   -0.415093 
9   0.079581 
10   0.140459 
11   0.140796 
12   0.142177 
13   0.17338 
14   0.178086 
15   0.183084 
16   0.127763 
17   0.135178 
18   0.130842 
19   0.125957 
20   0.131047 
21   0.123057 
22   0.132182 
23   0.155551 
24   0.135299 
25   0.135779 
26   0.175184 
27   0.16362 
 
>  <lowdin_charges> 
27 
1   -0.445329 
2   -0.548814 
3   -0.275523 
4   -0.275565 
5   -0.277263 
6   -0.28173 
7   -0.280892 
8   -0.379754 
9   0.08748 
10   0.149052 
11   0.146835 
12   0.146241 
13   0.160597 
14   0.160571 
15   0.176087 
16   0.137149 
17   0.140898 
18   0.139309 
19   0.140782 
20   0.141146 
21   0.134778 
22   0.14244 
23   0.151049 
24   0.14377 
25   0.144554 
26   0.166635 
27   0.155498 
 
$$$$ 
 
