PCCDB-ID:  20422 
public computational chemistry database (PCCDB) project, http://pccdb.org 
 
 29 29  0  0  0  0  0  0  0  0999 V2000 
    0.2622    1.5042    0.4848 C   0  0  0  0  0  0  0  0  0  0  0  0 
   -1.0298    1.8007   -0.3207 C   0  0  0  0  0  0  0  0  0  0  0  0 
    1.5462    1.3519   -0.3712 C   0  0  0  0  0  0  0  0  0  0  0  0 
   -2.3012    1.1060    0.2128 C   0  0  0  0  0  0  0  0  0  0  0  0 
    2.5381    0.2820    0.1350 C   0  0  0  0  0  0  0  0  0  0  0  0 
   -2.5055   -0.3761   -0.1788 C   0  0  0  0  0  0  0  0  0  0  0  0 
    2.2335   -1.1856   -0.2452 C   0  0  0  0  0  0  0  0  0  0  0  0 
   -1.4871   -1.3933    0.3613 C   0  0  0  0  0  0  0  0  0  0  0  0 
    0.9507   -1.8075    0.3298 C   0  0  0  0  0  0  0  0  0  0  0  0 
   -0.2464   -1.4133   -0.4152 N   0  0  0  0  0  0  0  0  0  0  0  0 
    0.1156    0.5982    1.0783 H   0  0  0  0  0  0  0  0  0  0  0  0 
    0.4166    2.3006    1.2242 H   0  0  0  0  0  0  0  0  0  0  0  0 
   -0.8916    1.5126   -1.3734 H   0  0  0  0  0  0  0  0  0  0  0  0 
   -1.1999    2.8847   -0.3433 H   0  0  0  0  0  0  0  0  0  0  0  0 
    2.0619    2.3194   -0.4224 H   0  0  0  0  0  0  0  0  0  0  0  0 
    1.2806    1.1158   -1.4124 H   0  0  0  0  0  0  0  0  0  0  0  0 
   -3.1762    1.6567   -0.1580 H   0  0  0  0  0  0  0  0  0  0  0  0 
   -2.3322    1.1976    1.3085 H   0  0  0  0  0  0  0  0  0  0  0  0 
    2.6277    0.3603    1.2285 H   0  0  0  0  0  0  0  0  0  0  0  0 
    3.5339    0.5158   -0.2647 H   0  0  0  0  0  0  0  0  0  0  0  0 
   -2.5392   -0.4663   -1.2743 H   0  0  0  0  0  0  0  0  0  0  0  0 
   -3.4991   -0.6757    0.1792 H   0  0  0  0  0  0  0  0  0  0  0  0 
    3.0824   -1.7954    0.0905 H   0  0  0  0  0  0  0  0  0  0  0  0 
    2.2050   -1.2838   -1.3403 H   0  0  0  0  0  0  0  0  0  0  0  0 
   -1.9333   -2.3983    0.3403 H   0  0  0  0  0  0  0  0  0  0  0  0 
   -1.2967   -1.1695    1.4297 H   0  0  0  0  0  0  0  0  0  0  0  0 
    0.8740   -1.5335    1.4009 H   0  0  0  0  0  0  0  0  0  0  0  0 
    1.0362   -2.9036    0.3059 H   0  0  0  0  0  0  0  0  0  0  0  0 
   -0.0980   -0.5078   -0.8404 H   0  0  0  0  0  0  0  0  0  0  0  0 
  1 11  1  0  0  0  0 
  1 12  1  0  0  0  0 
  2  4  1  0  0  0  0 
  2  1  1  0  0  0  0 
  3  5  1  0  0  0  0 
  3  1  1  0  0  0  0 
  4 18  1  0  0  0  0 
  5 19  1  0  0  0  0 
  6 22  1  0  0  0  0 
  6  4  1  0  0  0  0 
  6  8  1  0  0  0  0 
  7 23  1  0  0  0  0 
  7  5  1  0  0  0  0 
  7  9  1  0  0  0  0 
  8 26  1  0  0  0  0 
  9 27  1  0  0  0  0 
 10  9  1  0  0  0  0 
 10  8  1  0  0  0  0 
 13  2  1  0  0  0  0 
 14  2  1  0  0  0  0 
 15  3  1  0  0  0  0 
 16  3  1  0  0  0  0 
 17  4  1  0  0  0  0 
 20  5  1  0  0  0  0 
 21  6  1  0  0  0  0 
 24  7  1  0  0  0  0 
 25  8  1  0  0  0  0 
 28  9  1  0  0  0  0 
 29 10  1  0  0  0  0 
M  END 
>  <HBA> 
1 
 
>  <HBD> 
1 
 
>  <TPSA> 
12.03 
 
>  <cid> 
20422 
 
>  <dipole> 
1.19 
 
>  <excitation_energy_1> 
5.42 
 
>  <excitation_energy_2> 
5.547 
 
>  <excitation_energy_3> 
5.587 
 
>  <excitation_energy_4> 
5.793 
 
>  <homo_energy> 
-5.641 
 
>  <homo_lumo_gap> 
7.747 
 
>  <logP> 
2.649 
 
>  <lumo_energy> 
2.106 
 
>  <melting_point> 
21.2 
 
>  <molecular_refractivity> 
49.98 
 
>  <oscillator_strength_1> 
0.0012 
 
>  <oscillator_strength_2> 
0.0343 
 
>  <oscillator_strength_3> 
0.0004 
 
>  <oscillator_strength_4> 
0.0201 
 
>  <open_babel_can_smiles> 
C1CCCCCNCCC1 
 
>  <mulliken_charges> 
29 
1   -0.28575 
2   -0.272646 
3   -0.273675 
4   -0.257355 
5   -0.257146 
6   -0.289631 
7   -0.289553 
8   -0.099615 
9   -0.099919 
10   -0.579747 
11   0.157888 
12   0.135834 
13   0.130567 
14   0.135477 
15   0.135511 
16   0.130839 
17   0.130928 
18   0.131329 
19   0.131412 
20   0.131 
21   0.140858 
22   0.134897 
23   0.134868 
24   0.140959 
25   0.1338 
26   0.107311 
27   0.107201 
28   0.133888 
29   0.320467 
 
>  <lowdin_charges> 
29 
1   -0.296459 
2   -0.28301 
3   -0.284934 
4   -0.276443 
5   -0.275405 
6   -0.282162 
7   -0.283197 
8   -0.198633 
9   -0.197376 
10   -0.37478 
11   0.151112 
12   0.144735 
13   0.134625 
14   0.142764 
15   0.144437 
16   0.134783 
17   0.144739 
18   0.137229 
19   0.137368 
20   0.143465 
21   0.142154 
22   0.147849 
23   0.149117 
24   0.142189 
25   0.136708 
26   0.113229 
27   0.113006 
28   0.135099 
29   0.257789 
 
$$$$ 
 
