PCCDB-ID:  22520 
public computational chemistry database (PCCDB) project, http://pccdb.org 
 
 22 22  0  0  1  0  0  0  0  0999 V2000 
    0.9873   -0.0047   -0.1577 C   0  0  0  0  0  0  0  0  0  0  0  0 
    4.4976    1.4164    0.8005 C   0  0  0  0  0  0  0  0  0  0  0  0 
    3.0394    1.3898    0.3192 C   0  0  0  0  0  0  0  0  0  0  0  0 
    5.4653    0.5853   -0.0526 C   0  0  0  0  0  0  0  0  0  0  0  0 
    3.0439   -1.1326    0.8150 C   0  0  0  0  0  0  0  0  0  0  0  0 
    2.5211   -0.0017   -0.0981 C   0  0  1  0  0  0  0  0  0  0  0  0 
    5.3511   -0.9243    0.1559 C   0  0  0  0  0  0  0  0  0  0  0  0 
    4.3828   -1.6364    0.5459 N   0  0  0  0  0  0  0  0  0  0  0  0 
    6.5071   -1.6082   -0.1400 O   0  0  0  0  0  0  0  0  0  0  0  0 
    0.6136    0.8095   -0.7902 H   0  0  0  0  0  0  0  0  0  0  0  0 
    0.5550    0.1300    0.8425 H   0  0  0  0  0  0  0  0  0  0  0  0 
    0.6050   -0.9482   -0.5635 H   0  0  0  0  0  0  0  0  0  0  0  0 
    4.5574    1.0549    1.8346 H   0  0  0  0  0  0  0  0  0  0  0  0 
    4.8498    2.4551    0.8231 H   0  0  0  0  0  0  0  0  0  0  0  0 
    2.9167    2.0803   -0.5269 H   0  0  0  0  0  0  0  0  0  0  0  0 
    2.4044    1.7835    1.1256 H   0  0  0  0  0  0  0  0  0  0  0  0 
    6.4940    0.8828    0.1980 H   0  0  0  0  0  0  0  0  0  0  0  0 
    5.3391    0.8127   -1.1216 H   0  0  0  0  0  0  0  0  0  0  0  0 
    2.3731   -1.9952    0.7124 H   0  0  0  0  0  0  0  0  0  0  0  0 
    2.9665   -0.8297    1.8715 H   0  0  0  0  0  0  0  0  0  0  0  0 
    2.8951   -0.2245   -1.1080 H   0  0  0  0  0  0  0  0  0  0  0  0 
    7.1994   -0.9739   -0.3786 H   0  0  0  0  0  0  0  0  0  0  0  0 
  1  6  1  0  0  0  0 
  1 11  1  0  0  0  0 
  2 14  1  0  0  0  0 
  2 13  1  0  0  0  0 
  3  2  1  0  0  0  0 
  3 16  1  0  0  0  0 
  4  7  1  0  0  0  0 
  4 17  1  0  0  0  0 
  4  2  1  0  0  0  0 
  5 20  1  0  0  0  0 
  6 21  1  6  0  0  0 
  6  3  1  0  0  0  0 
  6  5  1  0  0  0  0 
  7  8  2  0  0  0  0 
  8  5  1  0  0  0  0 
  9  7  1  0  0  0  0 
 10  1  1  0  0  0  0 
 12  1  1  0  0  0  0 
 15  3  1  0  0  0  0 
 18  4  1  0  0  0  0 
 19  5  1  0  0  0  0 
 22  9  1  0  0  0  0 
M  END 
>  <HBA> 
2 
 
>  <HBD> 
1 
 
>  <TPSA> 
29.1 
 
>  <cid> 
22520 
 
>  <dipole> 
3.68 
 
>  <excitation_energy_1> 
5.363 
 
>  <excitation_energy_2> 
5.507 
 
>  <excitation_energy_3> 
5.811 
 
>  <excitation_energy_4> 
6.087 
 
>  <homo_energy> 
-6.199 
 
>  <homo_lumo_gap> 
6.969 
 
>  <logP> 
1.251 
 
>  <lumo_energy> 
0.77 
 
>  <melting_point> 
43.92 
 
>  <molecular_refractivity> 
40.57 
 
>  <oscillator_strength_1> 
0.0015 
 
>  <oscillator_strength_2> 
0.0032 
 
>  <oscillator_strength_3> 
0.0021 
 
>  <oscillator_strength_4> 
0.0066 
 
>  <open_babel_can_smiles> 
C[C@H]1CCCC(=NC1)O 
 
>  <mulliken_charges> 
22 
1   -0.455074 
2   -0.267521 
3   -0.261035 
4   -0.36923 
5   -0.147465 
6   -0.085493 
7   0.484642 
8   -0.417981 
9   -0.584597 
10   0.142037 
11   0.141926 
12   0.14742 
13   0.151227 
14   0.138965 
15   0.131216 
16   0.133157 
17   0.138064 
18   0.169499 
19   0.145395 
20   0.135936 
21   0.129904 
22   0.399009 
 
>  <lowdin_charges> 
22 
1   -0.444136 
2   -0.275212 
3   -0.281238 
4   -0.311797 
5   -0.202106 
6   -0.139596 
7   0.124588 
8   -0.209968 
9   -0.376998 
10   0.150281 
11   0.145926 
12   0.151322 
13   0.148648 
14   0.148741 
15   0.141724 
16   0.144635 
17   0.149129 
18   0.159834 
19   0.148873 
20   0.139594 
21   0.138251 
22   0.349505 
 
$$$$ 
 
