PCCDB-ID:  51080 
public computational chemistry database (PCCDB) project, http://pccdb.org 
 
 21 22  0  0  0  0  0  0  0  0999 V2000 
    1.8427   -2.4234   -1.5559 C   0  0  0  0  0  0  0  0  0  0  0  0 
    2.9364   -1.7612   -1.1731 C   0  0  0  0  0  0  0  0  0  0  0  0 
    7.2672   -4.2858    0.1248 C   0  0  0  0  0  0  0  0  0  0  0  0 
    8.5015   -3.6080    0.2050 C   0  0  0  0  0  0  0  0  0  0  0  0 
    6.0629   -3.5981    0.1998 C   0  0  0  0  0  0  0  0  0  0  0  0 
    8.5576   -2.2284    0.3651 C   0  0  0  0  0  0  0  0  0  0  0  0 
    5.7236    0.0188    0.6207 C   0  0  0  0  0  0  0  0  0  0  0  0 
    6.0888   -2.2036    0.3608 C   0  0  0  0  0  0  0  0  0  0  0  0 
    7.3423   -1.5405    0.4434 C   0  0  0  0  0  0  0  0  0  0  0  0 
    5.0720   -1.1840    0.4725 C   0  0  0  0  0  0  0  0  0  0  0  0 
    7.0840   -0.1906    0.6092 N   0  0  0  0  0  0  0  0  0  0  0  0 
    3.3179   -1.3975    0.5299 S   0  0  0  0  0  0  0  0  0  0  0  0 
    1.6195   -2.5563   -2.6105 H   0  0  0  0  0  0  0  0  0  0  0  0 
    1.1351   -2.8390   -0.8433 H   0  0  0  0  0  0  0  0  0  0  0  0 
    3.6442   -1.3551   -1.8922 H   0  0  0  0  0  0  0  0  0  0  0  0 
    7.2627   -5.3653    0.0020 H   0  0  0  0  0  0  0  0  0  0  0  0 
    9.4264   -4.1744    0.1410 H   0  0  0  0  0  0  0  0  0  0  0  0 
    5.1131   -4.1212    0.1365 H   0  0  0  0  0  0  0  0  0  0  0  0 
    9.5089   -1.7062    0.4271 H   0  0  0  0  0  0  0  0  0  0  0  0 
    5.3107    1.0103    0.7422 H   0  0  0  0  0  0  0  0  0  0  0  0 
    7.7828    0.5313    0.6944 H   0  0  0  0  0  0  0  0  0  0  0  0 
  1  2  2  0  0  0  0 
  1 14  1  0  0  0  0 
  2 12  1  0  0  0  0 
  3  5  2  0  0  0  0 
  3  4  1  0  0  0  0 
  4  6  2  0  0  0  0 
  5  8  1  0  0  0  0 
  6 19  1  0  0  0  0 
  6  9  1  0  0  0  0 
  7 20  1  0  0  0  0 
  8  9  2  0  0  0  0 
  8 10  1  0  0  0  0 
  9 11  1  0  0  0  0 
 10 12  1  0  0  0  0 
 10  7  2  0  0  0  0 
 11  7  1  0  0  0  0 
 11 21  1  0  0  0  0 
 13  1  1  0  0  0  0 
 15  2  1  0  0  0  0 
 16  3  1  0  0  0  0 
 17  4  1  0  0  0  0 
 18  5  1  0  0  0  0 
M  END 
>  <HBA> 
1 
 
>  <HBD> 
1 
 
>  <TPSA> 
41.09 
 
>  <cid> 
51080 
 
>  <dipole> 
3.14 
 
>  <excitation_energy_1> 
4.382 
 
>  <excitation_energy_2> 
4.811 
 
>  <excitation_energy_3> 
4.832 
 
>  <excitation_energy_4> 
4.854 
 
>  <homo_energy> 
-5.516 
 
>  <homo_lumo_gap> 
5.146 
 
>  <logP> 
3.404 
 
>  <lumo_energy> 
-0.37 
 
>  <melting_point> 
87.48 
 
>  <molecular_refractivity> 
54.35 
 
>  <oscillator_strength_1> 
0.0449 
 
>  <oscillator_strength_2> 
0.0098 
 
>  <oscillator_strength_3> 
0.0325 
 
>  <oscillator_strength_4> 
0.0335 
 
>  <open_babel_can_smiles> 
C=CSc1c[nH]c2c1cccc2 
 
>  <mulliken_charges> 
21 
1   -0.33077 
2   -0.237251 
3   -0.139133 
4   -0.149267 
5   -0.200012 
6   -0.162494 
7   0.049522 
8   0.112925 
9   0.317843 
10   -0.213903 
11   -0.677299 
12   0.14037 
13   0.148534 
14   0.151517 
15   0.168751 
16   0.125042 
17   0.125927 
18   0.14674 
19   0.123523 
20   0.167274 
21   0.332161 
 
>  <lowdin_charges> 
21 
1   -0.352814 
2   -0.270163 
3   -0.169152 
4   -0.161435 
5   -0.154406 
6   -0.187373 
7   -0.113168 
8   -0.02962 
9   0.033742 
10   -0.203318 
11   -0.19653 
12   0.197824 
13   0.164108 
14   0.165009 
15   0.171695 
16   0.154795 
17   0.157466 
18   0.167486 
19   0.156643 
20   0.174224 
21   0.294986 
 
$$$$ 
 
