PCCDB-ID:  10257 
public computational chemistry database (PCCDB) project, http://pccdb.org 
 
 31 32  0  0  0  0  0  0  0  0999 V2000 
    3.0803   -1.5408    2.3150 C   0  0  0  0  0  0  0  0  0  0  0  0 
    5.3301   -1.1368    3.0290 C   0  0  0  0  0  0  0  0  0  0  0  0 
    4.4235   -8.0166   -1.1615 C   0  0  0  0  0  0  0  0  0  0  0  0 
    5.2960   -7.3292   -1.9986 C   0  0  0  0  0  0  0  0  0  0  0  0 
    4.3202   -2.6889   -0.2702 C   0  0  0  0  0  0  0  0  0  0  0  0 
    4.9392   -2.5784    1.1370 C   0  0  0  0  0  0  0  0  0  0  0  0 
    3.6996   -5.9475   -0.0891 C   0  0  0  0  0  0  0  0  0  0  0  0 
    5.8243   -3.7472   -2.0676 C   0  0  0  0  0  0  0  0  0  0  0  0 
    4.8864   -3.8302   -1.0674 C   0  0  0  0  0  0  0  0  0  0  0  0 
    3.6311   -7.3299   -0.2165 C   0  0  0  0  0  0  0  0  0  0  0  0 
    4.5758   -5.2329   -0.9231 C   0  0  0  0  0  0  0  0  0  0  0  0 
    5.3650   -5.9409   -1.8718 C   0  0  0  0  0  0  0  0  0  0  0  0 
    6.1218   -5.0056   -2.5537 N   0  0  0  0  0  0  0  0  0  0  0  0 
    4.4677   -1.4130    1.8874 N   0  0  0  0  0  0  0  0  0  0  0  0 
    2.7625   -8.0009    0.6138 O   0  0  0  0  0  0  0  0  0  0  0  0 
    2.7752   -0.6295    2.8411 H   0  0  0  0  0  0  0  0  0  0  0  0 
    2.9134   -2.4005    2.9955 H   0  0  0  0  0  0  0  0  0  0  0  0 
    2.4198   -1.6595    1.4514 H   0  0  0  0  0  0  0  0  0  0  0  0 
    4.9943   -0.2225    3.5313 H   0  0  0  0  0  0  0  0  0  0  0  0 
    6.3588   -0.9778    2.6876 H   0  0  0  0  0  0  0  0  0  0  0  0 
    5.3409   -1.9525    3.7797 H   0  0  0  0  0  0  0  0  0  0  0  0 
    4.3481   -9.1000   -1.2360 H   0  0  0  0  0  0  0  0  0  0  0  0 
    5.9014   -7.8655   -2.7247 H   0  0  0  0  0  0  0  0  0  0  0  0 
    4.4926   -1.7396   -0.7913 H   0  0  0  0  0  0  0  0  0  0  0  0 
    3.2318   -2.8071   -0.1922 H   0  0  0  0  0  0  0  0  0  0  0  0 
    6.0246   -2.4791    1.0189 H   0  0  0  0  0  0  0  0  0  0  0  0 
    4.7704   -3.5221    1.6941 H   0  0  0  0  0  0  0  0  0  0  0  0 
    3.0769   -5.4522    0.6493 H   0  0  0  0  0  0  0  0  0  0  0  0 
    6.3090   -2.8722   -2.4802 H   0  0  0  0  0  0  0  0  0  0  0  0 
    6.7610   -5.2039   -3.3066 H   0  0  0  0  0  0  0  0  0  0  0  0 
    2.8175   -8.9485    0.4190 H   0  0  0  0  0  0  0  0  0  0  0  0 
  1 16  1  0  0  0  0 
  1 17  1  0  0  0  0 
  2 19  1  0  0  0  0 
  2 21  1  0  0  0  0 
  3 10  2  0  0  0  0 
  4 12  2  0  0  0  0 
  4  3  1  0  0  0  0 
  5 25  1  0  0  0  0 
  5  6  1  0  0  0  0 
  6 27  1  0  0  0  0 
  6 14  1  0  0  0  0 
  7 28  1  0  0  0  0 
  8  9  2  0  0  0  0 
  9 11  1  0  0  0  0 
  9  5  1  0  0  0  0 
 10  7  1  0  0  0  0 
 10 15  1  0  0  0  0 
 11  7  2  0  0  0  0 
 12 11  1  0  0  0  0 
 13  8  1  0  0  0  0 
 13 12  1  0  0  0  0 
 14  1  1  0  0  0  0 
 14  2  1  0  0  0  0 
 18  1  1  0  0  0  0 
 20  2  1  0  0  0  0 
 22  3  1  0  0  0  0 
 23  4  1  0  0  0  0 
 24  5  1  0  0  0  0 
 26  6  1  0  0  0  0 
 29  8  1  0  0  0  0 
 30 13  1  0  0  0  0 
 31 15  1  0  0  0  0 
M  END 
>  <HBA> 
2 
 
>  <HBD> 
2 
 
>  <TPSA> 
39.26 
 
>  <cid> 
10257 
 
>  <dipole> 
2.8 
 
>  <excitation_energy_1> 
4.287 
 
>  <excitation_energy_2> 
4.579 
 
>  <excitation_energy_3> 
4.617 
 
>  <excitation_energy_4> 
4.702 
 
>  <homo_energy> 
-5.094 
 
>  <homo_lumo_gap> 
4.972 
 
>  <logP> 
1.978 
 
>  <lumo_energy> 
-0.122 
 
>  <melting_point> 
141.38 
 
>  <molecular_refractivity> 
62.6 
 
>  <oscillator_strength_1> 
0.0596 
 
>  <oscillator_strength_2> 
0.0002 
 
>  <oscillator_strength_3> 
0.0632 
 
>  <oscillator_strength_4> 
0.0002 
 
>  <open_babel_can_smiles> 
CN(CCc1c[nH]c2c1cc(O)cc2)C 
 
>  <mulliken_charges> 
31 
1   -0.30161 
2   -0.292395 
3   -0.218938 
4   -0.16685 
5   -0.352173 
6   -0.107221 
7   -0.258057 
8   -0.003109 
9   0.064007 
10   0.353841 
11   0.084484 
12   0.312971 
13   -0.69545 
14   -0.367546 
15   -0.65607 
16   0.146108 
17   0.116763 
18   0.153474 
19   0.14471 
20   0.146327 
21   0.116802 
22   0.110732 
23   0.122621 
24   0.145583 
25   0.145351 
26   0.134108 
27   0.118569 
28   0.131605 
29   0.145407 
30   0.323899 
31   0.402059 
 
>  <lowdin_charges> 
31 
1   -0.36032 
2   -0.355617 
3   -0.216298 
4   -0.177769 
5   -0.270939 
6   -0.197786 
7   -0.200606 
8   -0.135925 
9   -0.064043 
10   0.08959 
11   -0.023887 
12   0.016578 
13   -0.203914 
14   -0.185575 
15   -0.390658 
16   0.149782 
17   0.119958 
18   0.151075 
19   0.148039 
20   0.147079 
21   0.120134 
22   0.14862 
23   0.157412 
24   0.153385 
25   0.146958 
26   0.142183 
27   0.120602 
28   0.165823 
29   0.163863 
30   0.290344 
31   0.351916 
 
$$$$ 
 
