PCCDB-ID:  18899 
public computational chemistry database (PCCDB) project, http://pccdb.org 
 
 30 31  0  0  0  0  0  0  0  0999 V2000 
   -1.5343   -0.7820   -0.5284 C   0  0  0  0  0  0  0  0  0  0  0  0 
   -0.9266    0.4739   -0.6278 C   0  0  0  0  0  0  0  0  0  0  0  0 
   -0.7683   -1.8821   -0.1457 C   0  0  0  0  0  0  0  0  0  0  0  0 
    6.4536   -1.1695    2.6124 C   0  0  0  0  0  0  0  0  0  0  0  0 
    7.4302   -0.1409    2.0142 C   0  0  0  0  0  0  0  0  0  0  0  0 
    0.4299    0.6283   -0.3569 C   0  0  0  0  0  0  0  0  0  0  0  0 
    0.5949   -1.7368    0.1246 C   0  0  0  0  0  0  0  0  0  0  0  0 
    5.0868   -0.4982    2.4037 C   0  0  0  0  0  0  0  0  0  0  0  0 
    6.6898    0.4130    0.7714 C   0  0  0  0  0  0  0  0  0  0  0  0 
    1.2169   -0.4770    0.0127 C   0  0  0  0  0  0  0  0  0  0  0  0 
    5.1848    0.1327    1.0037 C   0  0  0  0  0  0  0  0  0  0  0  0 
    3.4827   -0.9535   -0.2727 C   0  0  0  0  0  0  0  0  0  0  0  0 
    2.5741   -0.2733    0.3179 N   0  0  0  0  0  0  0  0  0  0  0  0 
    3.3315   -1.8745   -1.2491 O   0  0  0  0  0  0  0  0  0  0  0  0 
    4.7845   -0.8253   -0.0194 O   0  0  0  0  0  0  0  0  0  0  0  0 
   -2.5942   -0.8967   -0.7368 H   0  0  0  0  0  0  0  0  0  0  0  0 
   -1.5158    1.3404   -0.9171 H   0  0  0  0  0  0  0  0  0  0  0  0 
   -1.2302   -2.8612   -0.0462 H   0  0  0  0  0  0  0  0  0  0  0  0 
    6.6636   -1.4058    3.6608 H   0  0  0  0  0  0  0  0  0  0  0  0 
    6.4969   -2.1074    2.0441 H   0  0  0  0  0  0  0  0  0  0  0  0 
    8.4085   -0.5651    1.7656 H   0  0  0  0  0  0  0  0  0  0  0  0 
    7.6027    0.6639    2.7406 H   0  0  0  0  0  0  0  0  0  0  0  0 
    0.9065    1.6015   -0.4257 H   0  0  0  0  0  0  0  0  0  0  0  0 
    1.1757   -2.5902    0.4672 H   0  0  0  0  0  0  0  0  0  0  0  0 
    4.9511    0.3068    3.1383 H   0  0  0  0  0  0  0  0  0  0  0  0 
    4.2263   -1.1663    2.4910 H   0  0  0  0  0  0  0  0  0  0  0  0 
    6.9997   -0.1075   -0.1399 H   0  0  0  0  0  0  0  0  0  0  0  0 
    6.8793    1.4796    0.6144 H   0  0  0  0  0  0  0  0  0  0  0  0 
    4.5454    1.0097    0.8943 H   0  0  0  0  0  0  0  0  0  0  0  0 
    2.3776   -1.9406   -1.4417 H   0  0  0  0  0  0  0  0  0  0  0  0 
  1  3  1  0  0  0  0 
  2  1  2  0  0  0  0 
  2  6  1  0  0  0  0 
  3 18  1  0  0  0  0 
  3  7  2  0  0  0  0 
  4 19  1  0  0  0  0 
  5  4  1  0  0  0  0 
  5 22  1  0  0  0  0 
  6 10  2  0  0  0  0 
  7 24  1  0  0  0  0 
  8 26  1  0  0  0  0 
  8  4  1  0  0  0  0 
  8 25  1  0  0  0  0 
  9 11  1  0  0  0  0 
  9  5  1  0  0  0  0 
 10  7  1  0  0  0  0 
 10 13  1  0  0  0  0 
 11  8  1  0  0  0  0 
 12 15  1  0  0  0  0 
 12 13  2  0  0  0  0 
 14 12  1  0  0  0  0 
 15 11  1  0  0  0  0 
 16  1  1  0  0  0  0 
 17  2  1  0  0  0  0 
 20  4  1  0  0  0  0 
 21  5  1  0  0  0  0 
 23  6  1  0  0  0  0 
 27  9  1  0  0  0  0 
 28  9  1  0  0  0  0 
 29 11  1  0  0  0  0 
 30 14  1  0  0  0  0 
M  END 
>  <HBA> 
3 
 
>  <HBD> 
1 
 
>  <TPSA> 
38.33 
 
>  <cid> 
18899 
 
>  <dipole> 
0.43 
 
>  <excitation_energy_1> 
4.861 
 
>  <excitation_energy_2> 
5.222 
 
>  <excitation_energy_3> 
5.441 
 
>  <excitation_energy_4> 
5.877 
 
>  <homo_energy> 
-5.927 
 
>  <homo_lumo_gap> 
5.799 
 
>  <logP> 
3.251 
 
>  <lumo_energy> 
-0.128 
 
>  <melting_point> 
79.9 
 
>  <molecular_refractivity> 
59.34 
 
>  <oscillator_strength_1> 
0.0187 
 
>  <oscillator_strength_2> 
0.2887 
 
>  <oscillator_strength_3> 
0.0056 
 
>  <oscillator_strength_4> 
0.0047 
 
>  <open_babel_can_smiles> 
O/C(=N\c1ccccc1)/OC1CCCC1 
 
>  <mulliken_charges> 
30 
1   -0.130842 
2   -0.137745 
3   -0.133749 
4   -0.272947 
5   -0.275056 
6   -0.142508 
7   -0.200033 
8   -0.278531 
9   -0.298646 
10   0.223504 
11   0.135885 
12   0.680848 
13   -0.531099 
14   -0.58637 
15   -0.475859 
16   0.128161 
17   0.131653 
18   0.131984 
19   0.137445 
20   0.147485 
21   0.140505 
22   0.13612 
23   0.132979 
24   0.140063 
25   0.139483 
26   0.157899 
27   0.168643 
28   0.144262 
29   0.163403 
30   0.423062 
 
>  <lowdin_charges> 
30 
1   -0.169778 
2   -0.149538 
3   -0.150958 
4   -0.281776 
5   -0.282294 
6   -0.17149 
7   -0.211953 
8   -0.290404 
9   -0.292557 
10   0.042789 
11   0.008661 
12   0.203804 
13   -0.254483 
14   -0.353219 
15   -0.172666 
16   0.156161 
17   0.159533 
18   0.158243 
19   0.145735 
20   0.146694 
21   0.148182 
22   0.14212 
23   0.163134 
24   0.161061 
25   0.150187 
26   0.159532 
27   0.163669 
28   0.150076 
29   0.157504 
30   0.364031 
 
$$$$ 
 
