PCCDB-ID:  15375 
public computational chemistry database (PCCDB) project, http://pccdb.org 
 
 17 16  0  0  0  0  0  0  0  0999 V2000 
    3.2255   -2.3564    0.5935 C   0  0  0  0  0  0  0  0  0  0  0  0 
    3.1450   -0.0768    0.0146 C   0  0  0  0  0  0  0  0  0  0  0  0 
    4.0137    1.1748    0.0710 C   0  0  0  0  0  0  0  0  0  0  0  0 
    3.2370    2.5696   -1.6832 C   0  0  0  0  0  0  0  0  0  0  0  0 
    3.7667    1.8085   -2.5559 N   0  0  0  0  0  0  0  0  0  0  0  0 
    2.5456    3.7282   -1.8508 O   0  0  0  0  0  0  0  0  0  0  0  0 
    3.8877   -1.1108    0.6306 O   0  0  0  0  0  0  0  0  0  0  0  0 
    3.2814    2.3330   -0.3664 O   0  0  0  0  0  0  0  0  0  0  0  0 
    3.8781   -3.0833    1.0844 H   0  0  0  0  0  0  0  0  0  0  0  0 
    3.0358   -2.6862   -0.4406 H   0  0  0  0  0  0  0  0  0  0  0  0 
    2.2623   -2.3226    1.1282 H   0  0  0  0  0  0  0  0  0  0  0  0 
    2.9094   -0.3245   -1.0307 H   0  0  0  0  0  0  0  0  0  0  0  0 
    2.1973    0.1037    0.5495 H   0  0  0  0  0  0  0  0  0  0  0  0 
    4.9106    1.0469   -0.5381 H   0  0  0  0  0  0  0  0  0  0  0  0 
    4.2914    1.3890    1.1053 H   0  0  0  0  0  0  0  0  0  0  0  0 
    3.6538    2.1622   -3.5050 H   0  0  0  0  0  0  0  0  0  0  0  0 
    2.4823    3.9103   -2.8008 H   0  0  0  0  0  0  0  0  0  0  0  0 
  1  7  1  0  0  0  0 
  1  9  1  0  0  0  0 
  1 11  1  0  0  0  0 
  2  3  1  0  0  0  0 
  2 13  1  0  0  0  0 
  2  7  1  0  0  0  0 
  3 15  1  0  0  0  0 
  4  8  1  0  0  0  0 
  5  4  2  0  0  0  0 
  6  4  1  0  0  0  0 
  8  3  1  0  0  0  0 
 10  1  1  0  0  0  0 
 12  2  1  0  0  0  0 
 14  3  1  0  0  0  0 
 16  5  1  0  0  0  0 
 17  6  1  0  0  0  0 
M  END 
>  <HBA> 
4 
 
>  <HBD> 
1 
 
>  <TPSA> 
61.55 
 
>  <cid> 
15375 
 
>  <dipole> 
2.18 
 
>  <excitation_energy_1> 
5.879 
 
>  <excitation_energy_2> 
6.209 
 
>  <excitation_energy_3> 
6.498 
 
>  <excitation_energy_4> 
6.65 
 
>  <homo_energy> 
-6.865 
 
>  <homo_lumo_gap> 
8.044 
 
>  <logP> 
0.428 
 
>  <lumo_energy> 
1.178 
 
>  <melting_point> 
42.84 
 
>  <molecular_refractivity> 
26.81 
 
>  <oscillator_strength_1> 
0.0049 
 
>  <oscillator_strength_2> 
0.0063 
 
>  <oscillator_strength_3> 
0.0393 
 
>  <oscillator_strength_4> 
0.0145 
 
>  <open_babel_can_smiles> 
COCCOC(=N)O 
 
>  <mulliken_charges> 
17 
1   -0.190218 
2   -0.030787 
3   -0.04941 
4   0.642896 
5   -0.625809 
6   -0.566617 
7   -0.466788 
8   -0.448695 
9   0.158632 
10   0.133563 
11   0.130418 
12   0.150621 
13   0.126906 
14   0.184205 
15   0.165187 
16   0.277281 
17   0.408617 
 
>  <lowdin_charges> 
17 
1   -0.277332 
2   -0.140945 
3   -0.128286 
4   0.191289 
5   -0.472947 
6   -0.360609 
7   -0.270852 
8   -0.174781 
9   0.156799 
10   0.132741 
11   0.131328 
12   0.141737 
13   0.129605 
14   0.166946 
15   0.158541 
16   0.257301 
17   0.359464 
 
$$$$ 
 
