PCCDB-ID:  7924 
public computational chemistry database (PCCDB) project, http://pccdb.org 
 
 13 13  0  0  1  0  0  0  0  0999 V2000 
    1.0161   -0.0449   -0.1113 C   0  0  0  0  0  0  0  0  0  0  0  0 
    3.1055    1.1388   -1.0613 C   0  0  0  0  0  0  0  0  0  0  0  0 
    2.5337    0.0368   -0.1348 C   0  0  2  0  0  0  0  0  0  0  0  0 
    3.8413   -0.9103   -1.7875 C   0  0  0  0  0  0  0  0  0  0  0  0 
    4.4022   -1.7365   -2.4442 O   0  0  0  0  0  0  0  0  0  0  0  0 
    3.8719    0.4274   -2.0368 O   0  0  0  0  0  0  0  0  0  0  0  0 
    3.0839   -1.1733   -0.6896 O   0  0  0  0  0  0  0  0  0  0  0  0 
    0.5964    0.8668    0.3297 H   0  0  0  0  0  0  0  0  0  0  0  0 
    0.6857   -0.9001    0.4853 H   0  0  0  0  0  0  0  0  0  0  0  0 
    0.6204   -0.1554   -1.1268 H   0  0  0  0  0  0  0  0  0  0  0  0 
    3.7638    1.8379   -0.5376 H   0  0  0  0  0  0  0  0  0  0  0  0 
    2.3210    1.7030   -1.5758 H   0  0  0  0  0  0  0  0  0  0  0  0 
    2.9277    0.1303    0.8825 H   0  0  0  0  0  0  0  0  0  0  0  0 
  1  8  1  0  0  0  0 
  1  9  1  0  0  0  0 
  2 11  1  0  0  0  0 
  2  3  1  0  0  0  0 
  3  1  1  0  0  0  0 
  3 13  1  1  0  0  0 
  4  7  1  0  0  0  0 
  5  4  2  0  0  0  0 
  6  4  1  0  0  0  0 
  6  2  1  0  0  0  0 
  7  3  1  0  0  0  0 
 10  1  1  0  0  0  0 
 12  2  1  0  0  0  0 
M  END 
>  <HBA> 
3 
 
>  <HBD> 
0 
 
>  <TPSA> 
35.53 
 
>  <cid> 
7924 
 
>  <dipole> 
5.45 
 
>  <excitation_energy_1> 
6.958 
 
>  <excitation_energy_2> 
7.361 
 
>  <excitation_energy_3> 
7.517 
 
>  <excitation_energy_4> 
7.555 
 
>  <homo_energy> 
-7.935 
 
>  <homo_lumo_gap> 
9.056 
 
>  <logP> 
0.542 
 
>  <lumo_energy> 
1.121 
 
>  <melting_point> 
11.17 
 
>  <molecular_refractivity> 
21.99 
 
>  <oscillator_strength_1> 
0.0001 
 
>  <oscillator_strength_2> 
0.0053 
 
>  <oscillator_strength_3> 
0.0174 
 
>  <oscillator_strength_4> 
0.0128 
 
>  <open_babel_can_smiles> 
C[C@@H]1COC(=O)O1 
 
>  <mulliken_charges> 
13 
1   -0.460372 
2   -0.063752 
3   0.105349 
4   0.781501 
5   -0.455736 
6   -0.450884 
7   -0.45662 
8   0.155722 
9   0.177812 
10   0.16654 
11   0.169581 
12   0.16907 
13   0.161788 
 
>  <lowdin_charges> 
13 
1   -0.451645 
2   -0.141522 
3   -0.002065 
4   0.237805 
5   -0.232063 
6   -0.187342 
7   -0.187981 
8   0.161075 
9   0.170414 
10   0.16156 
11   0.160388 
12   0.15905 
13   0.152327 
 
$$$$ 
 
