PCCDB-ID:  30622 
public computational chemistry database (PCCDB) project, http://pccdb.org 
 
 33 32  0  0  0  0  0  0  0  0999 V2000 
    1.1686   -0.3850    1.0300 C   0  0  0  0  0  0  0  0  0  0  0  0 
    2.5989   -0.0622    0.5858 C   0  0  0  0  0  0  0  0  0  0  0  0 
    3.1877   -1.1104   -0.3675 C   0  0  0  0  0  0  0  0  0  0  0  0 
    4.6195   -0.7943   -0.8186 C   0  0  0  0  0  0  0  0  0  0  0  0 
    5.2097   -1.8450   -1.7680 C   0  0  0  0  0  0  0  0  0  0  0  0 
    6.6382   -1.5215   -2.2248 C   0  0  0  0  0  0  0  0  0  0  0  0 
    7.2307   -2.5772   -3.1669 C   0  0  0  0  0  0  0  0  0  0  0  0 
    8.6466   -2.2269   -3.6276 C   0  0  0  0  0  0  0  0  0  0  0  0 
   10.3824   -3.0397   -5.1628 C   0  0  0  0  0  0  0  0  0  0  0  0 
   10.9775   -1.9048   -5.0864 N   0  0  0  0  0  0  0  0  0  0  0  0 
   10.8285   -4.1950   -5.8333 N   0  0  0  0  0  0  0  0  0  0  0  0 
    9.1682   -3.2558   -4.5235 N   0  0  0  0  0  0  0  0  0  0  0  0 
    0.7760    0.3815    1.7079 H   0  0  0  0  0  0  0  0  0  0  0  0 
    1.1240   -1.3477    1.5543 H   0  0  0  0  0  0  0  0  0  0  0  0 
    0.4911   -0.4472    0.1693 H   0  0  0  0  0  0  0  0  0  0  0  0 
    3.2462    0.0260    1.4700 H   0  0  0  0  0  0  0  0  0  0  0  0 
    2.6174    0.9221    0.0967 H   0  0  0  0  0  0  0  0  0  0  0  0 
    2.5391   -1.2001   -1.2518 H   0  0  0  0  0  0  0  0  0  0  0  0 
    3.1694   -2.0955    0.1226 H   0  0  0  0  0  0  0  0  0  0  0  0 
    5.2665   -0.7011    0.0663 H   0  0  0  0  0  0  0  0  0  0  0  0 
    4.6360    0.1894   -1.3109 H   0  0  0  0  0  0  0  0  0  0  0  0 
    4.5602   -1.9432   -2.6504 H   0  0  0  0  0  0  0  0  0  0  0  0 
    5.1998   -2.8276   -1.2729 H   0  0  0  0  0  0  0  0  0  0  0  0 
    7.2862   -1.4154   -1.3426 H   0  0  0  0  0  0  0  0  0  0  0  0 
    6.6464   -0.5433   -2.7272 H   0  0  0  0  0  0  0  0  0  0  0  0 
    6.5861   -2.6969   -4.0481 H   0  0  0  0  0  0  0  0  0  0  0  0 
    7.2399   -3.5522   -2.6543 H   0  0  0  0  0  0  0  0  0  0  0  0 
    9.3081   -2.0778   -2.7595 H   0  0  0  0  0  0  0  0  0  0  0  0 
    8.6516   -1.2828   -4.1793 H   0  0  0  0  0  0  0  0  0  0  0  0 
   11.7925   -1.8807   -5.7022 H   0  0  0  0  0  0  0  0  0  0  0  0 
   11.6091   -4.0205   -6.4549 H   0  0  0  0  0  0  0  0  0  0  0  0 
   10.0877   -4.6973   -6.3126 H   0  0  0  0  0  0  0  0  0  0  0  0 
    9.0746   -4.1994   -4.1626 H   0  0  0  0  0  0  0  0  0  0  0  0 
  1 14  1  0  0  0  0 
  1 13  1  0  0  0  0 
  2  1  1  0  0  0  0 
  2 16  1  0  0  0  0 
  3 19  1  0  0  0  0 
  3  2  1  0  0  0  0 
  4  3  1  0  0  0  0 
  4 20  1  0  0  0  0 
  5 23  1  0  0  0  0 
  5  4  1  0  0  0  0 
  6  5  1  0  0  0  0 
  6 24  1  0  0  0  0 
  7 27  1  0  0  0  0 
  7  6  1  0  0  0  0 
  8  7  1  0  0  0  0 
  8 28  1  0  0  0  0 
  9 10  1  0  0  0  0 
  9 12  1  0  0  0  0 
 11  9  2  0  0  0  0 
 12 33  1  0  0  0  0 
 12  8  1  0  0  0  0 
 15  1  1  0  0  0  0 
 17  2  1  0  0  0  0 
 18  3  1  0  0  0  0 
 21  4  1  0  0  0  0 
 22  5  1  0  0  0  0 
 25  6  1  0  0  0  0 
 26  7  1  0  0  0  0 
 29  8  1  0  0  0  0 
 30 10  1  0  0  0  0 
 31 11  1  0  0  0  0 
 32 11  1  0  0  0  0 
M  RAD  1  10   2 
M  END 
>  <HBA> 
3 
 
>  <HBD> 
2 
 
>  <TPSA> 
64.4 
 
>  <cid> 
30622 
 
>  <dipole> 
2.55 
 
>  <excitation_energy_1> 
5.218 
 
>  <excitation_energy_2> 
5.815 
 
>  <excitation_energy_3> 
6.039 
 
>  <excitation_energy_4> 
6.233 
 
>  <homo_energy> 
-5.968 
 
>  <homo_lumo_gap> 
7.608 
 
>  <logP> 
3.021 
 
>  <lumo_energy> 
1.641 
 
>  <melting_point> 
97.81 
 
>  <molecular_refractivity> 
54.48 
 
>  <oscillator_strength_1> 
0.0017 
 
>  <oscillator_strength_2> 
0.0057 
 
>  <oscillator_strength_3> 
0.0178 
 
>  <oscillator_strength_4> 
0.0486 
 
>  <open_babel_can_smiles> 
CCCCCCCCNC(=[NH2])[NH] 
 
>  <mulliken_charges> 
33 
1   -0.441288 
2   -0.246568 
3   -0.245624 
4   -0.252701 
5   -0.252289 
6   -0.25618 
7   -0.275683 
8   -0.094629 
9   0.585116 
10   -0.644805 
11   -0.7571 
12   -0.609562 
13   0.141289 
14   0.140638 
15   0.140788 
16   0.129965 
17   0.130225 
18   0.125971 
19   0.125523 
20   0.127342 
21   0.128043 
22   0.127628 
23   0.125852 
24   0.131521 
25   0.133652 
26   0.140411 
27   0.120062 
28   0.139492 
29   0.17176 
30   0.261545 
31   0.316658 
32   0.320306 
33   0.312642 
 
>  <lowdin_charges> 
33 
1   -0.445828 
2   -0.271936 
3   -0.27438 
4   -0.274224 
5   -0.273294 
6   -0.273267 
7   -0.280315 
8   -0.191643 
9   0.122468 
10   -0.477993 
11   -0.517854 
12   -0.310401 
13   0.150066 
14   0.145603 
15   0.146398 
16   0.139064 
17   0.138269 
18   0.137355 
19   0.136196 
20   0.138161 
21   0.137609 
22   0.138237 
23   0.136358 
24   0.140284 
25   0.140694 
26   0.14471 
27   0.132871 
28   0.136972 
29   0.162736 
30   0.245097 
31   0.274498 
32   0.277708 
33   0.269778 
 
$$$$ 
 
