PCCDB-ID:  25835 
public computational chemistry database (PCCDB) project, http://pccdb.org 
 
 44 43  0  0  1  0  0  0  0  0999 V2000 
    4.7680    2.5246    0.6076 C   0  0  0  0  0  0  0  0  0  0  0  0 
    5.3927   -5.2979   -3.0401 C   0  0  0  0  0  0  0  0  0  0  0  0 
    5.2787   -1.4225   -4.8847 C   0  0  0  0  0  0  0  0  0  0  0  0 
    5.7443    1.8820   -0.3834 C   0  0  0  0  0  0  0  0  0  0  0  0 
    6.7218   -4.5375   -3.1273 C   0  0  0  0  0  0  0  0  0  0  0  0 
    6.3451    2.8924   -1.3708 C   0  0  0  0  0  0  0  0  0  0  0  0 
    7.4563   -4.7057   -4.4714 C   0  0  0  0  0  0  0  0  0  0  0  0 
    7.3842    2.3086   -2.3430 C   0  0  0  0  0  0  0  0  0  0  0  0 
    6.8236    1.3057   -3.3617 C   0  0  0  0  0  0  0  0  0  0  0  0 
    6.8035   -4.0529   -5.7116 C   0  0  0  0  0  0  0  0  0  0  0  0 
    7.8927    0.7978   -4.3400 C   0  0  0  0  0  0  0  0  0  0  0  0 
    7.2333   -2.6034   -6.0113 C   0  0  0  0  0  0  0  0  0  0  0  0 
    7.4076   -0.1321   -5.4676 C   0  0  0  0  0  0  0  0  0  0  0  0 
    6.8092   -1.4940   -5.0222 C   0  0  1  0  0  0  0  0  0  0  0  0 
    4.3581    1.7848    1.3047 H   0  0  0  0  0  0  0  0  0  0  0  0 
    3.9242    2.9930    0.0856 H   0  0  0  0  0  0  0  0  0  0  0  0 
    5.2613    3.3045    1.2011 H   0  0  0  0  0  0  0  0  0  0  0  0 
    4.9271   -5.1657   -2.0567 H   0  0  0  0  0  0  0  0  0  0  0  0 
    5.5439   -6.3735   -3.1958 H   0  0  0  0  0  0  0  0  0  0  0  0 
    4.6726   -4.9552   -3.7922 H   0  0  0  0  0  0  0  0  0  0  0  0 
    4.8592   -2.3436   -4.4657 H   0  0  0  0  0  0  0  0  0  0  0  0 
    4.8144   -1.2645   -5.8674 H   0  0  0  0  0  0  0  0  0  0  0  0 
    4.9672   -0.5963   -4.2384 H   0  0  0  0  0  0  0  0  0  0  0  0 
    5.2265    1.0842   -0.9317 H   0  0  0  0  0  0  0  0  0  0  0  0 
    6.5593    1.3927    0.1697 H   0  0  0  0  0  0  0  0  0  0  0  0 
    7.3834   -4.8970   -2.3271 H   0  0  0  0  0  0  0  0  0  0  0  0 
    6.5478   -3.4749   -2.9181 H   0  0  0  0  0  0  0  0  0  0  0  0 
    6.8163    3.7039   -0.7973 H   0  0  0  0  0  0  0  0  0  0  0  0 
    5.5327    3.3616   -1.9465 H   0  0  0  0  0  0  0  0  0  0  0  0 
    7.5624   -5.7843   -4.6564 H   0  0  0  0  0  0  0  0  0  0  0  0 
    8.4809   -4.3200   -4.3698 H   0  0  0  0  0  0  0  0  0  0  0  0 
    8.1888    1.8275   -1.7662 H   0  0  0  0  0  0  0  0  0  0  0  0 
    7.8587    3.1357   -2.8905 H   0  0  0  0  0  0  0  0  0  0  0  0 
    6.0074    1.7828   -3.9259 H   0  0  0  0  0  0  0  0  0  0  0  0 
    6.3758    0.4555   -2.8324 H   0  0  0  0  0  0  0  0  0  0  0  0 
    5.7102   -4.1201   -5.6460 H   0  0  0  0  0  0  0  0  0  0  0  0 
    7.0758   -4.6493   -6.5925 H   0  0  0  0  0  0  0  0  0  0  0  0 
    8.6789    0.2803   -3.7694 H   0  0  0  0  0  0  0  0  0  0  0  0 
    8.3825    1.6670   -4.8031 H   0  0  0  0  0  0  0  0  0  0  0  0 
    6.8504   -2.3298   -7.0068 H   0  0  0  0  0  0  0  0  0  0  0  0 
    8.3298   -2.5873   -6.0988 H   0  0  0  0  0  0  0  0  0  0  0  0 
    8.2696   -0.3213   -6.1217 H   0  0  0  0  0  0  0  0  0  0  0  0 
    6.6738    0.4008   -6.0906 H   0  0  0  0  0  0  0  0  0  0  0  0 
    7.2352   -1.7358   -4.0370 H   0  0  0  0  0  0  0  0  0  0  0  0 
  1 17  1  0  0  0  0 
  1 15  1  0  0  0  0 
  2 18  1  0  0  0  0 
  3 21  1  0  0  0  0 
  3 23  1  0  0  0  0 
  4 25  1  0  0  0  0 
  4  1  1  0  0  0  0 
  5  2  1  0  0  0  0 
  5 27  1  0  0  0  0 
  5 26  1  0  0  0  0 
  6 28  1  0  0  0  0 
  6  4  1  0  0  0  0 
  7 31  1  0  0  0  0 
  7  5  1  0  0  0  0 
  8 32  1  0  0  0  0 
  8  6  1  0  0  0  0 
  9 35  1  0  0  0  0 
  9  8  1  0  0  0  0 
 10 36  1  0  0  0  0 
 10  7  1  0  0  0  0 
 11 38  1  0  0  0  0 
 11  9  1  0  0  0  0 
 12 10  1  0  0  0  0 
 12 14  1  0  0  0  0 
 13 14  1  0  0  0  0 
 13 11  1  0  0  0  0 
 14  3  1  0  0  0  0 
 14 44  1  1  0  0  0 
 16  1  1  0  0  0  0 
 19  2  1  0  0  0  0 
 20  2  1  0  0  0  0 
 22  3  1  0  0  0  0 
 24  4  1  0  0  0  0 
 29  6  1  0  0  0  0 
 30  7  1  0  0  0  0 
 33  8  1  0  0  0  0 
 34  9  1  0  0  0  0 
 37 10  1  0  0  0  0 
 39 11  1  0  0  0  0 
 40 12  1  0  0  0  0 
 41 12  1  0  0  0  0 
 42 13  1  0  0  0  0 
 43 13  1  0  0  0  0 
M  END 
>  <HBA> 
0 
 
>  <HBD> 
0 
 
>  <TPSA> 
0.0 
 
>  <cid> 
25835 
 
>  <dipole> 
0.12 
 
>  <excitation_energy_1> 
7.366 
 
>  <excitation_energy_2> 
7.57 
 
>  <excitation_energy_3> 
7.572 
 
>  <excitation_energy_4> 
7.637 
 
>  <homo_energy> 
-7.821 
 
>  <homo_lumo_gap> 
9.94 
 
>  <logP> 
5.563 
 
>  <lumo_energy> 
2.12 
 
>  <melting_point> 
-31.88 
 
>  <molecular_refractivity> 
69.41 
 
>  <oscillator_strength_1> 
0.0006 
 
>  <oscillator_strength_2> 
0.0028 
 
>  <oscillator_strength_3> 
0.0001 
 
>  <oscillator_strength_4> 
0.0124 
 
>  <open_babel_can_smiles> 
CCCCCCC[C@H](CCCCC)C 
 
>  <mulliken_charges> 
44 
1   -0.441577 
2   -0.444627 
3   -0.464738 
4   -0.24816 
5   -0.256402 
6   -0.247419 
7   -0.250346 
8   -0.255541 
9   -0.256039 
10   -0.265951 
11   -0.259064 
12   -0.264955 
13   -0.266184 
14   -0.059943 
15   0.140887 
16   0.14116 
17   0.140695 
18   0.141524 
19   0.1403 
20   0.146092 
21   0.145958 
22   0.137052 
23   0.147478 
24   0.134639 
25   0.128664 
26   0.129394 
27   0.140452 
28   0.125908 
29   0.1252 
30   0.126444 
31   0.126756 
32   0.125573 
33   0.126356 
34   0.125189 
35   0.140361 
36   0.135223 
37   0.128776 
38   0.126645 
39   0.125594 
40   0.123798 
41   0.124799 
42   0.127793 
43   0.126566 
44   0.12567 
 
>  <lowdin_charges> 
44 
1   -0.44727 
2   -0.446795 
3   -0.452939 
4   -0.277161 
5   -0.276878 
6   -0.277703 
7   -0.275086 
8   -0.277608 
9   -0.282692 
10   -0.281605 
11   -0.275868 
12   -0.274001 
13   -0.279073 
14   -0.127811 
15   0.149874 
16   0.146974 
17   0.146792 
18   0.149059 
19   0.143937 
20   0.146362 
21   0.148024 
22   0.144374 
23   0.151771 
24   0.140893 
25   0.13912 
26   0.142187 
27   0.139882 
28   0.140672 
29   0.137898 
30   0.137964 
31   0.138615 
32   0.138139 
33   0.140775 
34   0.137316 
35   0.141973 
36   0.139107 
37   0.144755 
38   0.137645 
39   0.139808 
40   0.137263 
41   0.134707 
42   0.14283 
43   0.139861 
44   0.133912 
 
$$$$ 
 
