PCCDB-ID:  7243 
public computational chemistry database (PCCDB) project, http://pccdb.org 
 
 16 16  0  0  0  0  0  0  0  0999 V2000 
   -1.3790   -0.0676    0.0044 C   0  0  0  0  0  0  0  0  0  0  0  0 
   -0.6187   -1.2351    0.0001 C   0  0  0  0  0  0  0  0  0  0  0  0 
   -0.7366    1.1709   -0.0032 C   0  0  0  0  0  0  0  0  0  0  0  0 
    0.7738   -1.1491   -0.0103 C   0  0  0  0  0  0  0  0  0  0  0  0 
    0.6589    1.2725    0.0039 C   0  0  0  0  0  0  0  0  0  0  0  0 
    1.4315    0.0861    0.0019 C   0  0  0  0  0  0  0  0  0  0  0  0 
    1.2865    2.5335    0.0892 N   0  0  0  0  0  0  0  0  0  0  0  0 
    2.8377    0.1481    0.0891 N   0  0  0  0  0  0  0  0  0  0  0  0 
   -2.4644   -0.1128    0.0058 H   0  0  0  0  0  0  0  0  0  0  0  0 
   -1.0991   -2.2094   -0.0022 H   0  0  0  0  0  0  0  0  0  0  0  0 
   -1.3246    2.0872   -0.0021 H   0  0  0  0  0  0  0  0  0  0  0  0 
    1.3736   -2.0576   -0.0137 H   0  0  0  0  0  0  0  0  0  0  0  0 
    0.6594    3.2941   -0.1499 H   0  0  0  0  0  0  0  0  0  0  0  0 
    2.1387    2.6266   -0.4534 H   0  0  0  0  0  0  0  0  0  0  0  0 
    3.2821   -0.7276   -0.1641 H   0  0  0  0  0  0  0  0  0  0  0  0 
    3.2710    0.9036   -0.4304 H   0  0  0  0  0  0  0  0  0  0  0  0 
  1  9  1  0  0  0  0 
  2  1  1  0  0  0  0 
  3 11  1  0  0  0  0 
  3  5  1  0  0  0  0 
  3  1  2  0  0  0  0 
  4  2  2  0  0  0  0 
  4  6  1  0  0  0  0 
  5  7  1  0  0  0  0 
  6  5  2  0  0  0  0 
  6  8  1  0  0  0  0 
 10  2  1  0  0  0  0 
 12  4  1  0  0  0  0 
 13  7  1  0  0  0  0 
 14  7  1  0  0  0  0 
 15  8  1  0  0  0  0 
 16  8  1  0  0  0  0 
M  END 
>  <HBA> 
2 
 
>  <HBD> 
2 
 
>  <TPSA> 
52.04 
 
>  <cid> 
7243 
 
>  <dipole> 
2.83 
 
>  <excitation_energy_1> 
4.145 
 
>  <excitation_energy_2> 
4.605 
 
>  <excitation_energy_3> 
4.859 
 
>  <excitation_energy_4> 
5.04 
 
>  <homo_energy> 
-4.953 
 
>  <homo_lumo_gap> 
5.494 
 
>  <logP> 
2.013 
 
>  <lumo_energy> 
0.542 
 
>  <melting_point> 
102.63 
 
>  <molecular_refractivity> 
35.25 
 
>  <oscillator_strength_1> 
0.013 
 
>  <oscillator_strength_2> 
0.0594 
 
>  <oscillator_strength_3> 
0.0013 
 
>  <oscillator_strength_4> 
0.0013 
 
>  <open_babel_can_smiles> 
Nc1ccccc1N 
 
>  <mulliken_charges> 
16 
1   -0.141011 
2   -0.140952 
3   -0.18425 
4   -0.184382 
5   0.261045 
6   0.26248 
7   -0.78268 
8   -0.782692 
9   0.117706 
10   0.11772 
11   0.110381 
12   0.110442 
13   0.315589 
14   0.302037 
15   0.315762 
16   0.302805 
 
>  <lowdin_charges> 
16 
1   -0.171873 
2   -0.173768 
3   -0.194254 
4   -0.195183 
5   0.024354 
6   0.02778 
7   -0.496442 
8   -0.497347 
9   0.151677 
10   0.153566 
11   0.149666 
12   0.14988 
13   0.272431 
14   0.262902 
15   0.272044 
16   0.264566 
 
$$$$ 
 
