PCCDB-ID:  23406 
public computational chemistry database (PCCDB) project, http://pccdb.org 
 
 23 24  0  0  0  0  0  0  0  0999 V2000 
    0.8986   -0.1804   -0.0700 C   0  0  0  0  0  0  0  0  0  0  0  0 
    5.3390   -2.9377    0.1833 C   0  0  0  0  0  0  0  0  0  0  0  0 
    4.0158   -3.4207    0.1213 C   0  0  0  0  0  0  0  0  0  0  0  0 
    5.6076   -1.5742    0.1816 C   0  0  0  0  0  0  0  0  0  0  0  0 
    2.9319   -2.5513    0.0592 C   0  0  0  0  0  0  0  0  0  0  0  0 
    3.0958    1.0601    0.0218 C   0  0  0  0  0  0  0  0  0  0  0  0 
    5.5691    1.7465    0.0892 C   0  0  0  0  0  0  0  0  0  0  0  0 
    4.4363    0.7680    0.0799 C   0  0  0  0  0  0  0  0  0  0  0  0 
    4.5337   -0.6715    0.1074 C   0  0  0  0  0  0  0  0  0  0  0  0 
    3.2068   -1.1787    0.0528 C   0  0  0  0  0  0  0  0  0  0  0  0 
    2.3422   -0.0991    0.0004 N   0  0  0  0  0  0  0  0  0  0  0  0 
    6.4888    1.5349    1.1646 O   0  0  0  0  0  0  0  0  0  0  0  0 
    0.4855    0.8303   -0.0987 H   0  0  0  0  0  0  0  0  0  0  0  0 
    0.4898   -0.6995    0.8053 H   0  0  0  0  0  0  0  0  0  0  0  0 
    0.5776   -0.7137   -0.9729 H   0  0  0  0  0  0  0  0  0  0  0  0 
    6.1604   -3.6470    0.2396 H   0  0  0  0  0  0  0  0  0  0  0  0 
    3.8382   -4.4928    0.1282 H   0  0  0  0  0  0  0  0  0  0  0  0 
    6.6250   -1.2018    0.2529 H   0  0  0  0  0  0  0  0  0  0  0  0 
    1.9137   -2.9282    0.0173 H   0  0  0  0  0  0  0  0  0  0  0  0 
    2.6038    2.0238   -0.0159 H   0  0  0  0  0  0  0  0  0  0  0  0 
    5.1708    2.7746    0.1019 H   0  0  0  0  0  0  0  0  0  0  0  0 
    6.1813    1.6513   -0.8155 H   0  0  0  0  0  0  0  0  0  0  0  0 
    5.9584    1.4413    1.9717 H   0  0  0  0  0  0  0  0  0  0  0  0 
  1 11  1  0  0  0  0 
  1 14  1  0  0  0  0 
  2 16  1  0  0  0  0 
  3 17  1  0  0  0  0 
  3  2  2  0  0  0  0 
  4  2  1  0  0  0  0 
  4 18  1  0  0  0  0 
  5  3  1  0  0  0  0 
  6  8  2  0  0  0  0 
  7 21  1  0  0  0  0 
  7 12  1  0  0  0  0 
  8  7  1  0  0  0  0 
  8  9  1  0  0  0  0 
  9  4  2  0  0  0  0 
 10  5  2  0  0  0  0 
 10  9  1  0  0  0  0 
 11  6  1  0  0  0  0 
 11 10  1  0  0  0  0 
 12 23  1  0  0  0  0 
 13  1  1  0  0  0  0 
 15  1  1  0  0  0  0 
 19  5  1  0  0  0  0 
 20  6  1  0  0  0  0 
 22  7  1  0  0  0  0 
M  END 
>  <HBA> 
2 
 
>  <HBD> 
1 
 
>  <TPSA> 
25.16 
 
>  <cid> 
23406 
 
>  <dipole> 
3.88 
 
>  <excitation_energy_1> 
4.522 
 
>  <excitation_energy_2> 
4.817 
 
>  <excitation_energy_3> 
4.852 
 
>  <excitation_energy_4> 
5.292 
 
>  <homo_energy> 
-5.366 
 
>  <homo_lumo_gap> 
5.222 
 
>  <logP> 
1.671 
 
>  <lumo_energy> 
-0.144 
 
>  <melting_point> 
74.27 
 
>  <molecular_refractivity> 
49.33 
 
>  <oscillator_strength_1> 
0.0853 
 
>  <oscillator_strength_2> 
0.0223 
 
>  <oscillator_strength_3> 
0.0241 
 
>  <oscillator_strength_4> 
0.0693 
 
>  <open_babel_can_smiles> 
OCc1cn(c2c1cccc2)C 
 
>  <mulliken_charges> 
23 
1   -0.321521 
2   -0.140315 
3   -0.150173 
4   -0.210824 
5   -0.169474 
6   -0.011974 
7   -0.093669 
8   0.008158 
9   0.076374 
10   0.29952 
11   -0.497235 
12   -0.612556 
13   0.16873 
14   0.171666 
15   0.172682 
16   0.120997 
17   0.121727 
18   0.143952 
19   0.121816 
20   0.145434 
21   0.119057 
22   0.1526 
23   0.385027 
 
>  <lowdin_charges> 
23 
1   -0.345028 
2   -0.176676 
3   -0.16137 
4   -0.158479 
5   -0.190598 
6   -0.138286 
7   -0.126351 
8   -0.093979 
9   -0.030442 
10   0.022545 
11   -0.026566 
12   -0.471842 
13   0.165563 
14   0.159763 
15   0.159973 
16   0.155657 
17   0.15316 
18   0.165025 
19   0.15496 
20   0.161994 
21   0.128709 
22   0.15177 
23   0.340499 
 
$$$$ 
 
