PCCDB-ID:  45746 
public computational chemistry database (PCCDB) project, http://pccdb.org 
 
 20 20  0  0  0  0  0  0  0  0999 V2000 
   -0.7385    1.1816    0.0401 C   0  0  0  0  0  0  0  0  0  0  0  0 
    0.7084   -1.1442   -0.0814 C   0  0  0  0  0  0  0  0  0  0  0  0 
   -1.4573   -0.0184   -0.0414 C   0  0  0  0  0  0  0  0  0  0  0  0 
   -0.7020   -1.2255   -0.1049 C   0  0  0  0  0  0  0  0  0  0  0  0 
    0.6484    1.2510    0.0615 C   0  0  0  0  0  0  0  0  0  0  0  0 
    1.3932    0.0568    0.0005 C   0  0  0  0  0  0  0  0  0  0  0  0 
   -2.9731    0.2414   -0.0441 C   0  0  0  0  0  0  0  0  0  0  0  0 
   -1.2593   -2.5932   -0.1980 C   0  0  0  0  0  0  0  0  0  0  0  0 
    1.3374    2.4138    0.1396 O   0  0  0  0  0  0  0  0  0  0  0  0 
    2.7477    0.1599    0.0232 O   0  0  0  0  0  0  0  0  0  0  0  0 
   -3.3755    1.3873    0.0254 O   0  0  0  0  0  0  0  0  0  0  0  0 
   -3.8332   -0.7645   -0.1208 O   0  0  0  0  0  0  0  0  0  0  0  0 
   -2.4430   -2.9214   -0.2384 O   0  0  0  0  0  0  0  0  0  0  0  0 
   -0.3199   -3.5630   -0.2411 O   0  0  0  0  0  0  0  0  0  0  0  0 
   -1.3259    2.0936    0.0890 H   0  0  0  0  0  0  0  0  0  0  0  0 
    1.2814   -2.0634   -0.1310 H   0  0  0  0  0  0  0  0  0  0  0  0 
    0.7058    3.1508    0.1734 H   0  0  0  0  0  0  0  0  0  0  0  0 
    3.1338   -0.7296   -0.0150 H   0  0  0  0  0  0  0  0  0  0  0  0 
   -3.3793   -1.6465   -0.1726 H   0  0  0  0  0  0  0  0  0  0  0  0 
   -0.8125   -4.4026   -0.3015 H   0  0  0  0  0  0  0  0  0  0  0  0 
  1  5  1  0  0  0  0 
  1 15  1  0  0  0  0 
  2  6  1  0  0  0  0 
  3  1  2  0  0  0  0 
  4  2  2  0  0  0  0 
  4  3  1  0  0  0  0 
  5  9  1  0  0  0  0 
  6 10  1  0  0  0  0 
  6  5  2  0  0  0  0 
  7  3  1  0  0  0  0 
  7 11  2  0  0  0  0 
  8  4  1  0  0  0  0 
  9 17  1  0  0  0  0 
 12  7  1  0  0  0  0 
 13  8  2  0  0  0  0 
 14  8  1  0  0  0  0 
 16  2  1  0  0  0  0 
 18 10  1  0  0  0  0 
 19 12  1  0  0  0  0 
 20 14  1  0  0  0  0 
M  END 
>  <HBA> 
6 
 
>  <HBD> 
4 
 
>  <TPSA> 
115.06 
 
>  <cid> 
45746 
 
>  <dipole> 
5.93 
 
>  <excitation_energy_1> 
4.061 
 
>  <excitation_energy_2> 
4.067 
 
>  <excitation_energy_3> 
4.399 
 
>  <excitation_energy_4> 
4.978 
 
>  <homo_energy> 
-6.555 
 
>  <homo_lumo_gap> 
4.433 
 
>  <logP> 
0.494 
 
>  <lumo_energy> 
-2.123 
 
>  <melting_point> 
268.93 
 
>  <molecular_refractivity> 
44.41 
 
>  <oscillator_strength_1> 
0.0033 
 
>  <oscillator_strength_2> 
0.1302 
 
>  <oscillator_strength_3> 
0.0684 
 
>  <oscillator_strength_4> 
0.0 
 
>  <open_babel_can_smiles> 
OC(=O)c1cc(O)c(cc1C(=O)O)O 
 
>  <mulliken_charges> 
20 
1   -0.254676 
2   -0.244158 
3   -0.022006 
4   -0.009125 
5   0.361366 
6   0.349406 
7   0.588693 
8   0.588988 
9   -0.617934 
10   -0.624402 
11   -0.473039 
12   -0.604852 
13   -0.530561 
14   -0.577367 
15   0.182378 
16   0.165089 
17   0.421992 
18   0.415972 
19   0.458616 
20   0.42562 
 
>  <lowdin_charges> 
20 
1   -0.181351 
2   -0.187721 
3   -0.041628 
4   -0.065135 
5   0.09746 
6   0.087129 
7   0.189485 
8   0.215007 
9   -0.343222 
10   -0.352978 
11   -0.272412 
12   -0.351518 
13   -0.29276 
14   -0.341537 
15   0.190126 
16   0.177724 
17   0.369492 
18   0.363762 
19   0.36806 
20   0.372015 
 
$$$$ 
 
