PCCDB-ID:  22750 
public computational chemistry database (PCCDB) project, http://pccdb.org 
 
 23 25  0  0  1  0  0  0  0  0999 V2000 
    2.5275   -0.9584    0.0516 C   0  0  0  0  0  0  0  0  0  0  0  0 
   -2.3134   -1.3487   -0.0393 C   0  0  0  0  0  0  0  0  0  0  0  0 
    1.4425   -1.8158    0.0498 C   0  0  0  0  0  0  0  0  0  0  0  0 
   -1.1018   -2.0178   -0.0007 C   0  0  0  0  0  0  0  0  0  0  0  0 
    2.3821    0.4580    0.0117 C   0  0  0  0  0  0  0  0  0  0  0  0 
   -2.3960    0.0712   -0.0516 C   0  0  0  0  0  0  0  0  0  0  0  0 
    0.5988    2.4219   -0.0827 C   0  0  0  0  0  0  0  0  0  0  0  0 
    0.1207   -1.2917    0.0159 C   0  0  0  0  0  0  0  0  0  0  0  0 
    1.1153    0.9960   -0.0196 C   0  0  0  0  0  0  0  0  0  0  0  0 
   -1.2263    0.7983   -0.0283 C   0  0  0  0  0  0  0  0  0  0  0  0 
   -0.9706    2.2992   -0.0305 C   0  0  2  0  0  0  0  0  0  0  0  0 
    0.0079    0.1178   -0.0071 C   0  0  0  0  0  0  0  0  0  0  0  0 
   -1.6461    2.9976   -1.0724 O   0  0  0  0  0  0  0  0  0  0  0  0 
    3.5309   -1.3758    0.0791 H   0  0  0  0  0  0  0  0  0  0  0  0 
   -3.2349   -1.9250   -0.0570 H   0  0  0  0  0  0  0  0  0  0  0  0 
    1.5967   -2.8919    0.0744 H   0  0  0  0  0  0  0  0  0  0  0  0 
   -1.0814   -3.1050    0.0145 H   0  0  0  0  0  0  0  0  0  0  0  0 
    3.2691    1.0868    0.0027 H   0  0  0  0  0  0  0  0  0  0  0  0 
   -3.3659    0.5606   -0.0800 H   0  0  0  0  0  0  0  0  0  0  0  0 
    0.8854    2.9246   -1.0156 H   0  0  0  0  0  0  0  0  0  0  0  0 
    0.9826    3.0426    0.7353 H   0  0  0  0  0  0  0  0  0  0  0  0 
   -1.3522    2.7615    0.8863 H   0  0  0  0  0  0  0  0  0  0  0  0 
   -1.4768    2.5140   -1.8975 H   0  0  0  0  0  0  0  0  0  0  0  0 
  1 14  1  0  0  0  0 
  2  4  1  0  0  0  0 
  3  1  2  0  0  0  0 
  3 16  1  0  0  0  0 
  4 17  1  0  0  0  0 
  4  8  2  0  0  0  0 
  5  1  1  0  0  0  0 
  6  2  2  0  0  0  0 
  6 10  1  0  0  0  0 
  7 11  1  0  0  0  0 
  7  9  1  0  0  0  0 
  7 21  1  0  0  0  0 
  8  3  1  0  0  0  0 
  9 12  1  0  0  0  0 
  9  5  2  0  0  0  0 
 10 12  2  0  0  0  0 
 11 10  1  0  0  0  0 
 11 22  1  1  0  0  0 
 12  8  1  0  0  0  0 
 13 11  1  0  0  0  0 
 15  2  1  0  0  0  0 
 18  5  1  0  0  0  0 
 19  6  1  0  0  0  0 
 20  7  1  0  0  0  0 
 23 13  1  0  0  0  0 
M  END 
>  <HBA> 
1 
 
>  <HBD> 
1 
 
>  <TPSA> 
20.23 
 
>  <cid> 
22750 
 
>  <dipole> 
1.3 
 
>  <excitation_energy_1> 
4.207 
 
>  <excitation_energy_2> 
4.369 
 
>  <excitation_energy_3> 
5.255 
 
>  <excitation_energy_4> 
5.389 
 
>  <homo_energy> 
-5.706 
 
>  <homo_lumo_gap> 
4.689 
 
>  <logP> 
2.429 
 
>  <lumo_energy> 
-1.018 
 
>  <melting_point> 
98.52 
 
>  <molecular_refractivity> 
52.93 
 
>  <oscillator_strength_1> 
0.0945 
 
>  <oscillator_strength_2> 
0.0024 
 
>  <oscillator_strength_3> 
0.0105 
 
>  <oscillator_strength_4> 
0.0045 
 
>  <open_babel_can_smiles> 
O[C@@H]1Cc2c3c1cccc3ccc2 
 
>  <mulliken_charges> 
23 
1   -0.126955 
2   -0.130402 
3   -0.212193 
4   -0.207808 
5   -0.225307 
6   -0.21579 
7   -0.387541 
8   0.19535 
9   0.136315 
10   0.073273 
11   0.067908 
12   0.003856 
13   -0.615424 
14   0.128535 
15   0.13014 
16   0.128426 
17   0.129869 
18   0.126426 
19   0.137777 
20   0.162297 
21   0.16142 
22   0.155417 
23   0.384411 
 
>  <lowdin_charges> 
23 
1   -0.150774 
2   -0.154109 
3   -0.164135 
4   -0.158065 
5   -0.176548 
6   -0.166348 
7   -0.296989 
8   -0.001259 
9   -0.001868 
10   -0.031778 
11   0.003674 
12   -0.015268 
13   -0.454506 
14   0.157561 
15   0.15912 
16   0.155632 
17   0.155992 
18   0.157693 
19   0.162668 
20   0.162095 
21   0.162282 
22   0.154752 
23   0.340178 
 
$$$$ 
 
