PCCDB-ID:  32857 
public computational chemistry database (PCCDB) project, http://pccdb.org 
 
 23 22  0  0  0  0  0  0  0  0999 V2000 
    1.6937    1.1305   -0.9447 C   0  0  0  0  0  0  0  0  0  0  0  0 
    4.2026   -2.8762   -0.1649 C   0  0  0  0  0  0  0  0  0  0  0  0 
    1.4924    0.7610   -2.4196 C   0  0  0  0  0  0  0  0  0  0  0  0 
    5.4986   -3.5763    0.2506 C   0  0  0  0  0  0  0  0  0  0  0  0 
    3.0132    0.6242   -0.3699 C   0  0  0  0  0  0  0  0  0  0  0  0 
    4.2845   -1.3610   -0.0320 C   0  0  0  0  0  0  0  0  0  0  0  0 
    1.2629   -0.6233   -2.6172 O   0  0  0  0  0  0  0  0  0  0  0  0 
    6.6324   -3.1509   -0.5007 O   0  0  0  0  0  0  0  0  0  0  0  0 
    3.0524   -0.7987   -0.4657 O   0  0  0  0  0  0  0  0  0  0  0  0 
    0.8588    0.7267   -0.3588 H   0  0  0  0  0  0  0  0  0  0  0  0 
    1.6761    2.2233   -0.8321 H   0  0  0  0  0  0  0  0  0  0  0  0 
    3.3736   -3.2517    0.4487 H   0  0  0  0  0  0  0  0  0  0  0  0 
    3.9615   -3.1306   -1.2073 H   0  0  0  0  0  0  0  0  0  0  0  0 
    2.3643    1.1125   -3.0023 H   0  0  0  0  0  0  0  0  0  0  0  0 
    0.6128    1.2807   -2.8161 H   0  0  0  0  0  0  0  0  0  0  0  0 
    5.3670   -4.6675    0.1880 H   0  0  0  0  0  0  0  0  0  0  0  0 
    5.7405   -3.3398    1.2929 H   0  0  0  0  0  0  0  0  0  0  0  0 
    3.1243    0.9276    0.6838 H   0  0  0  0  0  0  0  0  0  0  0  0 
    3.8619    1.0555   -0.9282 H   0  0  0  0  0  0  0  0  0  0  0  0 
    5.1189   -0.9693   -0.6319 H   0  0  0  0  0  0  0  0  0  0  0  0 
    4.4728   -1.0786    1.0174 H   0  0  0  0  0  0  0  0  0  0  0  0 
    1.9279   -1.0800   -2.0721 H   0  0  0  0  0  0  0  0  0  0  0  0 
    6.4965   -3.4312   -1.4195 H   0  0  0  0  0  0  0  0  0  0  0  0 
  1 11  1  0  0  0  0 
  1  5  1  0  0  0  0 
  1 10  1  0  0  0  0 
  2  6  1  0  0  0  0 
  2  4  1  0  0  0  0 
  2 12  1  0  0  0  0 
  3  1  1  0  0  0  0 
  4 17  1  0  0  0  0 
  5 18  1  0  0  0  0 
  6 21  1  0  0  0  0 
  7  3  1  0  0  0  0 
  7 22  1  0  0  0  0 
  8  4  1  0  0  0  0 
  9  5  1  0  0  0  0 
  9  6  1  0  0  0  0 
 13  2  1  0  0  0  0 
 14  3  1  0  0  0  0 
 15  3  1  0  0  0  0 
 16  4  1  0  0  0  0 
 19  5  1  0  0  0  0 
 20  6  1  0  0  0  0 
 23  8  1  0  0  0  0 
M  END 
>  <HBA> 
3 
 
>  <HBD> 
2 
 
>  <TPSA> 
49.69 
 
>  <cid> 
32857 
 
>  <dipole> 
1.72 
 
>  <excitation_energy_1> 
6.476 
 
>  <excitation_energy_2> 
6.562 
 
>  <excitation_energy_3> 
6.664 
 
>  <excitation_energy_4> 
6.766 
 
>  <homo_energy> 
-6.694 
 
>  <homo_lumo_gap> 
8.419 
 
>  <logP> 
-0.232 
 
>  <lumo_energy> 
1.725 
 
>  <melting_point> 
1.72 
 
>  <molecular_refractivity> 
34.36 
 
>  <oscillator_strength_1> 
0.0064 
 
>  <oscillator_strength_2> 
0.0091 
 
>  <oscillator_strength_3> 
0.0048 
 
>  <oscillator_strength_4> 
0.0154 
 
>  <open_babel_can_smiles> 
OCCCOCCCO 
 
>  <mulliken_charges> 
23 
1   -0.30708 
2   -0.304473 
3   -0.012713 
4   -0.043876 
5   -0.013516 
6   0.002177 
7   -0.640739 
8   -0.609982 
9   -0.49726 
10   0.158034 
11   0.135097 
12   0.151635 
13   0.139812 
14   0.106552 
15   0.138446 
16   0.131524 
17   0.150226 
18   0.128896 
19   0.124558 
20   0.141529 
21   0.123365 
22   0.408145 
23   0.389643 
 
>  <lowdin_charges> 
23 
1   -0.302182 
2   -0.300773 
3   -0.131328 
4   -0.130887 
5   -0.128206 
6   -0.129559 
7   -0.488103 
8   -0.466813 
9   -0.280324 
10   0.156427 
11   0.151195 
12   0.157463 
13   0.143612 
14   0.118573 
15   0.144509 
16   0.13118 
17   0.146332 
18   0.1317 
19   0.129223 
20   0.13862 
21   0.128691 
22   0.339172 
23   0.341478 
 
$$$$ 
 
