PCCDB-ID:  34241 
public computational chemistry database (PCCDB) project, http://pccdb.org 
 
 21 21  0  0  0  0  0  0  0  0999 V2000 
    0.9380   -0.3674   -0.0997 C   0  0  0  0  0  0  0  0  0  0  0  0 
    3.2549   -3.7835    0.8364 C   0  0  0  0  0  0  0  0  0  0  0  0 
    7.3772   -1.0917    1.2141 C   0  0  0  0  0  0  0  0  0  0  0  0 
    4.6156   -3.6222    1.0694 C   0  0  0  0  0  0  0  0  0  0  0  0 
    6.6376   -2.2210    1.2441 C   0  0  0  0  0  0  0  0  0  0  0  0 
    2.4457   -2.6895    0.5210 C   0  0  0  0  0  0  0  0  0  0  0  0 
    8.7765   -1.0947    1.4800 C   0  0  0  0  0  0  0  0  0  0  0  0 
    4.3885   -1.2462    0.6739 C   0  0  0  0  0  0  0  0  0  0  0  0 
    5.2013   -2.3431    0.9902 C   0  0  0  0  0  0  0  0  0  0  0  0 
    3.0204   -1.4125    0.4397 C   0  0  0  0  0  0  0  0  0  0  0  0 
    9.9214   -1.0778    1.6946 N   0  0  0  0  0  0  0  0  0  0  0  0 
    2.3346   -0.2733    0.1392 O   0  0  0  0  0  0  0  0  0  0  0  0 
    0.6040    0.6490   -0.3147 H   0  0  0  0  0  0  0  0  0  0  0  0 
    0.4028   -0.7461    0.7809 H   0  0  0  0  0  0  0  0  0  0  0  0 
    0.7183   -1.0107   -0.9617 H   0  0  0  0  0  0  0  0  0  0  0  0 
    2.8089   -4.7722    0.8991 H   0  0  0  0  0  0  0  0  0  0  0  0 
    6.9409   -0.1232    0.9851 H   0  0  0  0  0  0  0  0  0  0  0  0 
    5.2342   -4.4812    1.3138 H   0  0  0  0  0  0  0  0  0  0  0  0 
    7.1485   -3.1523    1.4811 H   0  0  0  0  0  0  0  0  0  0  0  0 
    1.3870   -2.8381    0.3435 H   0  0  0  0  0  0  0  0  0  0  0  0 
    4.7911   -0.2415    0.6010 H   0  0  0  0  0  0  0  0  0  0  0  0 
  1 12  1  0  0  0  0 
  1 14  1  0  0  0  0 
  2 16  1  0  0  0  0 
  2  4  2  0  0  0  0 
  3  5  2  0  0  0  0 
  3  7  1  0  0  0  0 
  4 18  1  0  0  0  0 
  5 19  1  0  0  0  0 
  6  2  1  0  0  0  0 
  7 11  3  0  0  0  0 
  8  9  2  0  0  0  0 
  9  4  1  0  0  0  0 
  9  5  1  0  0  0  0 
 10  6  2  0  0  0  0 
 10  8  1  0  0  0  0 
 12 10  1  0  0  0  0 
 13  1  1  0  0  0  0 
 15  1  1  0  0  0  0 
 17  3  1  0  0  0  0 
 20  6  1  0  0  0  0 
 21  8  1  0  0  0  0 
M  END 
>  <HBA> 
2 
 
>  <HBD> 
0 
 
>  <TPSA> 
33.02 
 
>  <cid> 
34241 
 
>  <dipole> 
6.77 
 
>  <excitation_energy_1> 
3.856 
 
>  <excitation_energy_2> 
4.415 
 
>  <excitation_energy_3> 
5.397 
 
>  <excitation_energy_4> 
5.663 
 
>  <homo_energy> 
-6.359 
 
>  <homo_lumo_gap> 
4.408 
 
>  <logP> 
2.232 
 
>  <lumo_energy> 
-1.951 
 
>  <melting_point> 
66.18 
 
>  <molecular_refractivity> 
47.58 
 
>  <oscillator_strength_1> 
0.0692 
 
>  <oscillator_strength_2> 
0.6102 
 
>  <oscillator_strength_3> 
0.0362 
 
>  <oscillator_strength_4> 
0.0 
 
>  <open_babel_can_smiles> 
N#C/C=C/c1cccc(c1)OC 
 
>  <mulliken_charges> 
21 
1   -0.218783 
2   -0.136409 
3   -0.1548 
4   -0.192055 
5   -0.146463 
6   -0.191134 
7   0.309679 
8   -0.233516 
9   0.172734 
10   0.387069 
11   -0.480532 
12   -0.506281 
13   0.175846 
14   0.155511 
15   0.155432 
16   0.140715 
17   0.180737 
18   0.137075 
19   0.160893 
20   0.140356 
21   0.143925 
 
>  <lowdin_charges> 
21 
1   -0.276991 
2   -0.141804 
3   -0.179039 
4   -0.171942 
5   -0.100149 
6   -0.198787 
7   -0.015355 
8   -0.174319 
9   -0.000975 
10   0.105255 
11   -0.124709 
12   -0.196453 
13   0.165655 
14   0.148071 
15   0.147595 
16   0.163143 
17   0.182259 
18   0.162565 
19   0.172646 
20   0.165041 
21   0.168293 
 
$$$$ 
 
