PCCDB-ID:  23563 
public computational chemistry database (PCCDB) project, http://pccdb.org 
 
 42 43  0  0  0  0  0  0  0  0999 V2000 
    3.7717   -0.1269    2.3199 C   0  0  0  0  0  0  0  0  0  0  0  0 
    3.2852   -0.4373    0.8901 C   0  0  0  0  0  0  0  0  0  0  0  0 
    3.8750    2.4660   -2.7265 C   0  0  0  0  0  0  0  0  0  0  0  0 
    5.3281   -4.1324    0.6048 C   0  0  0  0  0  0  0  0  0  0  0  0 
    2.9814    2.2784   -1.4912 C   0  0  0  0  0  0  0  0  0  0  0  0 
    4.9822    1.4022   -2.7831 C   0  0  0  0  0  0  0  0  0  0  0  0 
    3.9949   -3.7354   -0.0415 C   0  0  0  0  0  0  0  0  0  0  0  0 
    5.9926   -2.9090    1.2472 C   0  0  0  0  0  0  0  0  0  0  0  0 
    3.8167    2.2287   -0.2033 C   0  0  0  0  0  0  0  0  0  0  0  0 
    5.7685    1.3471   -1.4633 C   0  0  0  0  0  0  0  0  0  0  0  0 
    4.1808   -2.6171   -1.0845 C   0  0  0  0  0  0  0  0  0  0  0  0 
    6.2532   -1.8038    0.2096 C   0  0  0  0  0  0  0  0  0  0  0  0 
    4.8717    1.0927   -0.2288 C   0  0  0  0  0  0  0  0  0  0  0  0 
    5.0336   -1.3821   -0.6709 C   0  0  0  0  0  0  0  0  0  0  0  0 
    4.2191   -0.2334   -0.2230 N   0  0  0  0  0  0  0  0  0  0  0  0 
    3.9973    0.9360    2.4559 H   0  0  0  0  0  0  0  0  0  0  0  0 
    4.6703   -0.6904    2.5881 H   0  0  0  0  0  0  0  0  0  0  0  0 
    2.9848   -0.3873    3.0385 H   0  0  0  0  0  0  0  0  0  0  0  0 
    2.3843    0.1637    0.7056 H   0  0  0  0  0  0  0  0  0  0  0  0 
    2.9476   -1.4737    0.8484 H   0  0  0  0  0  0  0  0  0  0  0  0 
    4.3372    3.4641   -2.6872 H   0  0  0  0  0  0  0  0  0  0  0  0 
    3.2724    2.4381   -3.6437 H   0  0  0  0  0  0  0  0  0  0  0  0 
    5.9972   -4.5525   -0.1615 H   0  0  0  0  0  0  0  0  0  0  0  0 
    5.1708   -4.9216    1.3511 H   0  0  0  0  0  0  0  0  0  0  0  0 
    2.4170    1.3423   -1.5882 H   0  0  0  0  0  0  0  0  0  0  0  0 
    2.2470    3.0920   -1.4284 H   0  0  0  0  0  0  0  0  0  0  0  0 
    5.6683    1.6143   -3.6136 H   0  0  0  0  0  0  0  0  0  0  0  0 
    4.5307    0.4232   -2.9884 H   0  0  0  0  0  0  0  0  0  0  0  0 
    3.2971   -3.4312    0.7496 H   0  0  0  0  0  0  0  0  0  0  0  0 
    3.5349   -4.6033   -0.5323 H   0  0  0  0  0  0  0  0  0  0  0  0 
    6.9422   -3.1921    1.7200 H   0  0  0  0  0  0  0  0  0  0  0  0 
    5.3464   -2.5403    2.0538 H   0  0  0  0  0  0  0  0  0  0  0  0 
    3.1632    2.1490    0.6709 H   0  0  0  0  0  0  0  0  0  0  0  0 
    4.3610    3.1764   -0.0845 H   0  0  0  0  0  0  0  0  0  0  0  0 
    6.2505    2.3210   -1.2989 H   0  0  0  0  0  0  0  0  0  0  0  0 
    6.5882    0.6233   -1.5250 H   0  0  0  0  0  0  0  0  0  0  0  0 
    3.2120   -2.2616   -1.4546 H   0  0  0  0  0  0  0  0  0  0  0  0 
    4.6884   -3.0725   -1.9467 H   0  0  0  0  0  0  0  0  0  0  0  0 
    7.0326   -2.1752   -0.4733 H   0  0  0  0  0  0  0  0  0  0  0  0 
    6.6781   -0.9169    0.6958 H   0  0  0  0  0  0  0  0  0  0  0  0 
    5.5155    1.2182    0.6624 H   0  0  0  0  0  0  0  0  0  0  0  0 
    5.4681   -1.0368   -1.6100 H   0  0  0  0  0  0  0  0  0  0  0  0 
  1 16  1  0  0  0  0 
  1 17  1  0  0  0  0 
  1 18  1  0  0  0  0 
  2  1  1  0  0  0  0 
  3 21  1  0  0  0  0 
  3  5  1  0  0  0  0 
  4  8  1  0  0  0  0 
  4 24  1  0  0  0  0 
  5 26  1  0  0  0  0 
  5  9  1  0  0  0  0 
  6  3  1  0  0  0  0 
  6 10  1  0  0  0  0 
  7  4  1  0  0  0  0 
  7 29  1  0  0  0  0 
  8 31  1  0  0  0  0 
  8 32  1  0  0  0  0 
  9 34  1  0  0  0  0 
  9 33  1  0  0  0  0 
 10 35  1  0  0  0  0 
 10 13  1  0  0  0  0 
 11 14  1  0  0  0  0 
 11  7  1  0  0  0  0 
 12 40  1  0  0  0  0 
 12  8  1  0  0  0  0 
 13 15  1  0  0  0  0 
 13  9  1  0  0  0  0 
 13 41  1  0  0  0  0 
 14 15  1  0  0  0  0 
 14 12  1  0  0  0  0 
 15  2  1  0  0  0  0 
 19  2  1  0  0  0  0 
 20  2  1  0  0  0  0 
 22  3  1  0  0  0  0 
 23  4  1  0  0  0  0 
 25  5  1  0  0  0  0 
 27  6  1  0  0  0  0 
 28  6  1  0  0  0  0 
 30  7  1  0  0  0  0 
 36 10  1  0  0  0  0 
 37 11  1  0  0  0  0 
 38 11  1  0  0  0  0 
 39 12  1  0  0  0  0 
 42 14  1  0  0  0  0 
M  END 
>  <HBA> 
1 
 
>  <HBD> 
0 
 
>  <TPSA> 
3.24 
 
>  <cid> 
23563 
 
>  <dipole> 
0.4 
 
>  <excitation_energy_1> 
4.553 
 
>  <excitation_energy_2> 
4.812 
 
>  <excitation_energy_3> 
4.888 
 
>  <excitation_energy_4> 
5.0 
 
>  <homo_energy> 
-5.099 
 
>  <homo_lumo_gap> 
7.012 
 
>  <logP> 
3.974 
 
>  <lumo_energy> 
1.913 
 
>  <melting_point> 
15.92 
 
>  <molecular_refractivity> 
68.08 
 
>  <oscillator_strength_1> 
0.0024 
 
>  <oscillator_strength_2> 
0.0106 
 
>  <oscillator_strength_3> 
0.0109 
 
>  <oscillator_strength_4> 
0.0015 
 
>  <open_babel_can_smiles> 
CCN(C1CCCCC1)C1CCCCC1 
 
>  <mulliken_charges> 
42 
1   -0.463145 
2   -0.138007 
3   -0.257563 
4   -0.253572 
5   -0.25172 
6   -0.253876 
7   -0.265274 
8   -0.266092 
9   -0.283536 
10   -0.298741 
11   -0.286008 
12   -0.273997 
13   0.074407 
14   0.047466 
15   -0.415479 
16   0.148967 
17   0.153899 
18   0.137811 
19   0.138 
20   0.140621 
21   0.122432 
22   0.126866 
23   0.124424 
24   0.128177 
25   0.145089 
26   0.123627 
27   0.125459 
28   0.144267 
29   0.136504 
30   0.129299 
31   0.128517 
32   0.135987 
33   0.134933 
34   0.124661 
35   0.12835 
36   0.13895 
37   0.143819 
38   0.129258 
39   0.122634 
40   0.135886 
41   0.102956 
42   0.133744 
 
>  <lowdin_charges> 
42 
1   -0.468397 
2   -0.204694 
3   -0.275926 
4   -0.280009 
5   -0.279788 
6   -0.280522 
7   -0.284281 
8   -0.283445 
9   -0.287048 
10   -0.288393 
11   -0.289203 
12   -0.300841 
13   -0.060586 
14   -0.068837 
15   -0.197166 
16   0.147375 
17   0.150429 
18   0.151499 
19   0.137963 
20   0.149209 
21   0.133612 
22   0.141538 
23   0.136666 
24   0.142914 
25   0.146288 
26   0.140949 
27   0.14172 
28   0.143886 
29   0.137454 
30   0.143747 
31   0.142702 
32   0.140476 
33   0.144985 
34   0.140162 
35   0.14348 
36   0.144872 
37   0.150663 
38   0.144826 
39   0.140475 
40   0.146104 
41   0.116972 
42   0.148168 
 
$$$$ 
 
