PCCDB-ID:  35107 
public computational chemistry database (PCCDB) project, http://pccdb.org 
 
 23 23  0  0  0  0  0  0  0  0999 V2000 
    0.9827   -0.1939    0.0002 C   0  0  0  0  0  0  0  0  0  0  0  0 
    8.8009    0.1666   -0.2295 C   0  0  0  0  0  0  0  0  0  0  0  0 
    2.5090   -0.1523   -0.0401 C   0  0  0  0  0  0  0  0  0  0  0  0 
    6.1259    2.6591    1.5717 C   0  0  0  0  0  0  0  0  0  0  0  0 
    4.2558    1.2171    0.7496 C   0  0  0  0  0  0  0  0  0  0  0  0 
    6.5933    0.7876    0.3157 C   0  0  0  0  0  0  0  0  0  0  0  0 
    6.5523    3.6817    2.2100 N   0  0  0  0  0  0  0  0  0  0  0  0 
    2.9998    1.0074    0.6922 N   0  0  0  0  0  0  0  0  0  0  0  0 
    4.7650    2.3088    1.4356 N   0  0  0  0  0  0  0  0  0  0  0  0 
    7.0417    1.8056    0.9527 N   0  0  0  0  0  0  0  0  0  0  0  0 
    5.2671    0.4412    0.1766 N   0  0  0  0  0  0  0  0  0  0  0  0 
    7.3862   -0.0898   -0.3101 O   0  0  0  0  0  0  0  0  0  0  0  0 
    0.6002   -1.0648   -0.5442 H   0  0  0  0  0  0  0  0  0  0  0  0 
    0.5644    0.7113   -0.4518 H   0  0  0  0  0  0  0  0  0  0  0  0 
    0.6309   -0.2475    1.0354 H   0  0  0  0  0  0  0  0  0  0  0  0 
    9.2657   -0.6418   -0.7942 H   0  0  0  0  0  0  0  0  0  0  0  0 
    9.1299    0.1564    0.8120 H   0  0  0  0  0  0  0  0  0  0  0  0 
    9.0368    1.1380   -0.6694 H   0  0  0  0  0  0  0  0  0  0  0  0 
    2.8384   -0.1288   -1.0946 H   0  0  0  0  0  0  0  0  0  0  0  0 
    2.9037   -1.0903    0.3900 H   0  0  0  0  0  0  0  0  0  0  0  0 
    5.7742    4.2134    2.6090 H   0  0  0  0  0  0  0  0  0  0  0  0 
    4.0576    2.8956    1.8578 H   0  0  0  0  0  0  0  0  0  0  0  0 
    5.0280   -0.3835   -0.3541 H   0  0  0  0  0  0  0  0  0  0  0  0 
  1 15  1  0  0  0  0 
  2 17  1  0  0  0  0 
  3  1  1  0  0  0  0 
  3 20  1  0  0  0  0 
  3  8  1  0  0  0  0 
  4  7  1  0  0  0  0 
  5  9  1  0  0  0  0 
  6 10  2  0  0  0  0 
  7 21  1  0  0  0  0 
  8  5  2  0  0  0  0 
  9  4  1  0  0  0  0 
  9 22  1  0  0  0  0 
 10  4  2  0  0  0  0 
 11  6  1  0  0  0  0 
 11  5  1  0  0  0  0 
 12  2  1  0  0  0  0 
 12  6  1  0  0  0  0 
 13  1  1  0  0  0  0 
 14  1  1  0  0  0  0 
 16  2  1  0  0  0  0 
 18  2  1  0  0  0  0 
 19  3  1  0  0  0  0 
 23 11  1  0  0  0  0 
M  RAD  1   7   2 
M  END 
>  <HBA> 
6 
 
>  <HBD> 
2 
 
>  <TPSA> 
85.95 
 
>  <cid> 
35107 
 
>  <dipole> 
3.78 
 
>  <excitation_energy_1> 
5.25 
 
>  <excitation_energy_2> 
5.411 
 
>  <excitation_energy_3> 
5.495 
 
>  <excitation_energy_4> 
5.684 
 
>  <homo_energy> 
-6.202 
 
>  <homo_lumo_gap> 
6.027 
 
>  <logP> 
0.548 
 
>  <lumo_energy> 
-0.174 
 
>  <melting_point> 
139.99 
 
>  <molecular_refractivity> 
44.84 
 
>  <oscillator_strength_1> 
0.0072 
 
>  <oscillator_strength_2> 
0.0002 
 
>  <oscillator_strength_3> 
0.0521 
 
>  <oscillator_strength_4> 
0.0017 
 
>  <open_babel_can_smiles> 
CC/N=C\1/NC(=[N]=C(N1)OC)[NH] 
 
>  <mulliken_charges> 
23 
1   -0.433418 
2   -0.213188 
3   -0.152821 
4   0.614162 
5   0.767188 
6   0.768783 
7   -0.618378 
8   -0.501548 
9   -0.704339 
10   -0.513077 
11   -0.723858 
12   -0.493254 
13   0.135029 
14   0.155305 
15   0.155678 
16   0.167994 
17   0.184565 
18   0.185073 
19   0.126161 
20   0.127948 
21   0.26596 
22   0.34105 
23   0.358985 
 
>  <lowdin_charges> 
23 
1   -0.442579 
2   -0.267551 
3   -0.200106 
4   0.129393 
5   0.134475 
6   0.183731 
7   -0.417769 
8   -0.265605 
9   -0.26417 
10   -0.224848 
11   -0.247945 
12   -0.18458 
13   0.147742 
14   0.155863 
15   0.154617 
16   0.163721 
17   0.166446 
18   0.167587 
19   0.126051 
20   0.128766 
21   0.246496 
22   0.301309 
23   0.308957 
 
$$$$ 
 
