PCCDB-ID:  21328 
public computational chemistry database (PCCDB) project, http://pccdb.org 
 
 17 18  0  0  1  0  0  0  0  0999 V2000 
   -1.5915    0.7376   -0.0917 C   0  0  0  0  0  0  0  0  0  0  0  0 
   -0.2519    1.5001   -0.2107 C   0  0  0  0  0  0  0  0  0  0  0  0 
   -1.4250   -0.7978   -0.1317 C   0  0  0  0  0  0  0  0  0  0  0  0 
    0.8472    0.7407    0.5819 C   0  0  2  0  0  0  0  0  0  0  0  0 
   -0.1688   -1.2161    0.6578 C   0  0  2  0  0  0  0  0  0  0  0  0 
    1.5915   -0.2202   -0.3506 C   0  0  0  0  0  0  0  0  0  0  0  0 
    2.5293   -0.0130   -1.0722 O   0  0  0  0  0  0  0  0  0  0  0  0 
    0.2513   -0.1741    1.5161 O   0  0  0  0  0  0  0  0  0  0  0  0 
    0.9436   -1.4156   -0.2547 O   0  0  0  0  0  0  0  0  0  0  0  0 
   -2.2838    1.0652   -0.8740 H   0  0  0  0  0  0  0  0  0  0  0  0 
   -2.0481    1.0031    0.8668 H   0  0  0  0  0  0  0  0  0  0  0  0 
   -0.3696    2.5134    0.1865 H   0  0  0  0  0  0  0  0  0  0  0  0 
    0.0610    1.6048   -1.2565 H   0  0  0  0  0  0  0  0  0  0  0  0 
   -1.3342   -1.1757   -1.1558 H   0  0  0  0  0  0  0  0  0  0  0  0 
   -2.3099   -1.2713    0.3076 H   0  0  0  0  0  0  0  0  0  0  0  0 
    1.5336    1.3948    1.1192 H   0  0  0  0  0  0  0  0  0  0  0  0 
   -0.2818   -2.1319    1.2381 H   0  0  0  0  0  0  0  0  0  0  0  0 
  1 11  1  0  0  0  0 
  2  1  1  0  0  0  0 
  2 12  1  0  0  0  0 
  2  4  1  0  0  0  0 
  3  1  1  0  0  0  0 
  3 15  1  0  0  0  0 
  3  5  1  0  0  0  0 
  4 16  1  1  0  0  0 
  4  8  1  0  0  0  0 
  5 17  1  1  0  0  0 
  5  8  1  0  0  0  0 
  6  9  1  0  0  0  0 
  6  4  1  0  0  0  0 
  7  6  2  0  0  0  0 
  9  5  1  0  0  0  0 
 10  1  1  0  0  0  0 
 13  2  1  0  0  0  0 
 14  3  1  0  0  0  0 
M  END 
>  <HBA> 
3 
 
>  <HBD> 
0 
 
>  <TPSA> 
35.53 
 
>  <cid> 
21328 
 
>  <dipole> 
3.74 
 
>  <excitation_energy_1> 
5.486 
 
>  <excitation_energy_2> 
6.573 
 
>  <excitation_energy_3> 
6.681 
 
>  <excitation_energy_4> 
7.162 
 
>  <homo_energy> 
-7.17 
 
>  <homo_lumo_gap> 
7.227 
 
>  <logP> 
0.438 
 
>  <lumo_energy> 
0.057 
 
>  <melting_point> 
22.09 
 
>  <molecular_refractivity> 
29.1 
 
>  <oscillator_strength_1> 
0.0026 
 
>  <oscillator_strength_2> 
0.0006 
 
>  <oscillator_strength_3> 
0.0125 
 
>  <oscillator_strength_4> 
0.0006 
 
>  <open_babel_can_smiles> 
O=C1O[C@H]2O[C@@H]1CCC2 
 
>  <mulliken_charges> 
17 
1   -0.266565 
2   -0.299754 
3   -0.304153 
4   0.004308 
5   0.322298 
6   0.617388 
7   -0.451661 
8   -0.470803 
9   -0.458293 
10   0.149678 
11   0.160323 
12   0.158939 
13   0.168917 
14   0.169497 
15   0.154207 
16   0.179955 
17   0.165719 
 
>  <lowdin_charges> 
17 
1   -0.275493 
2   -0.289112 
3   -0.308134 
4   -0.038495 
5   0.107913 
6   0.180275 
7   -0.224555 
8   -0.248675 
9   -0.190916 
10   0.156331 
11   0.154814 
12   0.158136 
13   0.158492 
14   0.161466 
15   0.159887 
16   0.176046 
17   0.16202 
 
$$$$ 
 
