PCCDB-ID:  61060 
public computational chemistry database (PCCDB) project, http://pccdb.org 
 
 29 30  0  0  1  0  0  0  0  0999 V2000 
    2.9117   -3.0174   -8.5964 C   0  0  0  0  0  0  0  0  0  0  0  0 
    2.8921   -4.9441   -7.0502 C   0  0  0  0  0  0  0  0  0  0  0  0 
    0.9053   -2.5536   -6.0705 C   0  0  0  0  0  0  0  0  0  0  0  0 
    4.5234   -3.4371   -5.1108 C   0  0  0  0  0  0  0  0  0  0  0  0 
    3.0423   -3.1236   -4.7311 C   0  0  0  0  0  0  0  0  0  0  0  0 
    4.5359   -1.4835   -6.6449 C   0  0  0  0  0  0  0  0  0  0  0  0 
    4.5861   -3.0265   -6.6016 C   0  0  2  0  0  0  0  0  0  0  0  0 
    3.0837   -1.1558   -6.2082 C   0  0  2  0  0  0  0  0  0  0  0  0 
    3.1754   -3.4313   -7.1348 C   0  0  0  0  0  0  0  0  0  0  0  0 
    2.4277   -2.5682   -6.0480 C   0  0  2  0  0  0  0  0  0  0  0  0 
    2.4915   -0.3070   -7.1936 O   0  0  0  0  0  0  0  0  0  0  0  0 
    3.6319   -3.5126   -9.2608 H   0  0  0  0  0  0  0  0  0  0  0  0 
    2.9661   -1.9419   -8.7623 H   0  0  0  0  0  0  0  0  0  0  0  0 
    1.9113   -3.3437   -8.9073 H   0  0  0  0  0  0  0  0  0  0  0  0 
    3.0683   -5.3802   -6.0639 H   0  0  0  0  0  0  0  0  0  0  0  0 
    3.5283   -5.4829   -7.7635 H   0  0  0  0  0  0  0  0  0  0  0  0 
    1.8516   -5.1584   -7.3230 H   0  0  0  0  0  0  0  0  0  0  0  0 
    0.5018   -1.9418   -5.2516 H   0  0  0  0  0  0  0  0  0  0  0  0 
    0.4944   -3.5624   -5.9489 H   0  0  0  0  0  0  0  0  0  0  0  0 
    0.5205   -2.1508   -7.0146 H   0  0  0  0  0  0  0  0  0  0  0  0 
    4.7591   -4.4967   -4.9703 H   0  0  0  0  0  0  0  0  0  0  0  0 
    5.2409   -2.8702   -4.5073 H   0  0  0  0  0  0  0  0  0  0  0  0 
    2.9596   -2.3972   -3.9137 H   0  0  0  0  0  0  0  0  0  0  0  0 
    2.5107   -4.0235   -4.4037 H   0  0  0  0  0  0  0  0  0  0  0  0 
    4.6984   -1.0905   -7.6523 H   0  0  0  0  0  0  0  0  0  0  0  0 
    5.2849   -1.0251   -5.9903 H   0  0  0  0  0  0  0  0  0  0  0  0 
    5.4337   -3.4551   -7.1470 H   0  0  0  0  0  0  0  0  0  0  0  0 
    3.0587   -0.6336   -5.2389 H   0  0  0  0  0  0  0  0  0  0  0  0 
    1.6013   -0.0759   -6.8859 H   0  0  0  0  0  0  0  0  0  0  0  0 
  1  9  1  0  0  0  0 
  2 15  1  0  0  0  0 
  3 19  1  0  0  0  0 
  3 18  1  0  0  0  0 
  4 21  1  0  0  0  0 
  4  5  1  0  0  0  0 
  4 22  1  0  0  0  0 
  5 24  1  0  0  0  0 
  5 23  1  0  0  0  0 
  6  7  1  0  0  0  0 
  6  8  1  0  0  0  0 
  6 26  1  0  0  0  0 
  7 27  1  6  0  0  0 
  7  4  1  0  0  0  0 
  8 10  1  0  0  0  0 
  8 28  1  1  0  0  0 
  9  2  1  0  0  0  0 
  9  7  1  0  0  0  0 
  9 10  1  0  0  0  0 
 10  3  1  6  0  0  0 
 10  5  1  0  0  0  0 
 11 29  1  0  0  0  0 
 11  8  1  0  0  0  0 
 12  1  1  0  0  0  0 
 13  1  1  0  0  0  0 
 14  1  1  0  0  0  0 
 16  2  1  0  0  0  0 
 17  2  1  0  0  0  0 
 20  3  1  0  0  0  0 
 25  6  1  0  0  0  0 
M  END 
>  <HBA> 
1 
 
>  <HBD> 
1 
 
>  <TPSA> 
20.23 
 
>  <cid> 
61060 
 
>  <dipole> 
1.39 
 
>  <excitation_energy_1> 
6.095 
 
>  <excitation_energy_2> 
6.697 
 
>  <excitation_energy_3> 
6.791 
 
>  <excitation_energy_4> 
6.98 
 
>  <homo_energy> 
-6.808 
 
>  <homo_lumo_gap> 
8.648 
 
>  <logP> 
2.193 
 
>  <lumo_energy> 
1.84 
 
>  <melting_point> 
71.93 
 
>  <molecular_refractivity> 
46.6 
 
>  <oscillator_strength_1> 
0.0039 
 
>  <oscillator_strength_2> 
0.0049 
 
>  <oscillator_strength_3> 
0.015 
 
>  <oscillator_strength_4> 
0.0299 
 
>  <open_babel_can_smiles> 
O[C@@H]1C[C@@H]2C([C@@]1(C)CC2)(C)C 
 
>  <mulliken_charges> 
29 
1   -0.478576 
2   -0.466686 
3   -0.503838 
4   -0.279632 
5   -0.2948 
6   -0.294856 
7   -0.100533 
8   0.130119 
9   0.098186 
10   0.091091 
11   -0.635449 
12   0.131314 
13   0.180837 
14   0.132774 
15   0.142213 
16   0.140601 
17   0.139805 
18   0.134837 
19   0.149518 
20   0.147537 
21   0.137337 
22   0.130751 
23   0.128939 
24   0.137177 
25   0.159804 
26   0.132832 
27   0.109382 
28   0.108021 
29   0.391296 
 
>  <lowdin_charges> 
29 
1   -0.454671 
2   -0.447385 
3   -0.45288 
4   -0.287225 
5   -0.28796 
6   -0.290209 
7   -0.135231 
8   -0.009914 
9   0.004991 
10   -0.016243 
11   -0.458387 
12   0.145851 
13   0.164506 
14   0.144724 
15   0.148738 
16   0.151041 
17   0.14647 
18   0.146575 
19   0.153653 
20   0.150441 
21   0.142816 
22   0.143972 
23   0.141322 
24   0.145201 
25   0.159131 
26   0.146301 
27   0.139361 
28   0.123629 
29   0.341383 
 
$$$$ 
 
