PCCDB-ID:  39452 
public computational chemistry database (PCCDB) project, http://pccdb.org 
 
 32 32  0  0  0  0  0  0  0  0999 V2000 
    5.5336    4.0721   -0.2094 C   0  0  0  0  0  0  0  0  0  0  0  0 
    5.5792   -0.9849   -0.4439 C   0  0  0  0  0  0  0  0  0  0  0  0 
    8.3365    1.5368    0.3524 C   0  0  0  0  0  0  0  0  0  0  0  0 
    7.6480    2.7445    0.2431 C   0  0  0  0  0  0  0  0  0  0  0  0 
    7.6668    0.3344    0.1332 C   0  0  0  0  0  0  0  0  0  0  0  0 
    1.9674    1.2189   -0.1421 C   0  0  0  0  0  0  0  0  0  0  0  0 
    3.3582    1.4074    0.4461 C   0  0  0  0  0  0  0  0  0  0  0  0 
    6.2846    2.7695   -0.0697 C   0  0  0  0  0  0  0  0  0  0  0  0 
    6.3033    0.3145   -0.1840 C   0  0  0  0  0  0  0  0  0  0  0  0 
    5.6275    1.5434   -0.2688 C   0  0  0  0  0  0  0  0  0  0  0  0 
    1.4508   -1.1854   -0.1183 C   0  0  0  0  0  0  0  0  0  0  0  0 
    1.3897   -1.1538    1.1648 N   0  0  0  0  0  0  0  0  0  0  0  0 
    1.1585   -2.2731   -0.9608 N   0  0  0  0  0  0  0  0  0  0  0  0 
    1.8122   -0.0563   -0.8356 N   0  0  0  0  0  0  0  0  0  0  0  0 
    4.2905    1.5581   -0.6330 O   0  0  0  0  0  0  0  0  0  0  0  0 
    6.2265    4.9185   -0.2489 H   0  0  0  0  0  0  0  0  0  0  0  0 
    4.8531    4.2439    0.6349 H   0  0  0  0  0  0  0  0  0  0  0  0 
    4.9210    4.0799   -1.1166 H   0  0  0  0  0  0  0  0  0  0  0  0 
    6.2850   -1.7714   -0.7311 H   0  0  0  0  0  0  0  0  0  0  0  0 
    4.8357   -0.8652   -1.2369 H   0  0  0  0  0  0  0  0  0  0  0  0 
    5.0391   -1.3357    0.4457 H   0  0  0  0  0  0  0  0  0  0  0  0 
    9.3963    1.5341    0.5931 H   0  0  0  0  0  0  0  0  0  0  0  0 
    8.1723    3.6849    0.3971 H   0  0  0  0  0  0  0  0  0  0  0  0 
    8.2066   -0.6077    0.1993 H   0  0  0  0  0  0  0  0  0  0  0  0 
    1.7797    2.0183   -0.8659 H   0  0  0  0  0  0  0  0  0  0  0  0 
    1.2352    1.2981    0.6704 H   0  0  0  0  0  0  0  0  0  0  0  0 
    3.6187    0.5472    1.0711 H   0  0  0  0  0  0  0  0  0  0  0  0 
    3.3673    2.3070    1.0794 H   0  0  0  0  0  0  0  0  0  0  0  0 
    1.1946   -2.0806    1.5455 H   0  0  0  0  0  0  0  0  0  0  0  0 
    1.0866   -3.1541   -0.4661 H   0  0  0  0  0  0  0  0  0  0  0  0 
    1.7856   -2.3554   -1.7551 H   0  0  0  0  0  0  0  0  0  0  0  0 
    1.4074   -0.0018   -1.7600 H   0  0  0  0  0  0  0  0  0  0  0  0 
  1  8  1  0  0  0  0 
  1 17  1  0  0  0  0 
  2  9  1  0  0  0  0 
  2 21  1  0  0  0  0 
  3 22  1  0  0  0  0 
  4  3  1  0  0  0  0 
  4 23  1  0  0  0  0 
  5 24  1  0  0  0  0 
  5  3  2  0  0  0  0 
  6  7  1  0  0  0  0 
  6 26  1  0  0  0  0 
  7 27  1  0  0  0  0 
  7 28  1  0  0  0  0 
  8  4  2  0  0  0  0 
  9  5  1  0  0  0  0 
 10  9  2  0  0  0  0 
 10  8  1  0  0  0  0 
 11 12  1  0  0  0  0 
 12 29  1  0  0  0  0 
 13 30  1  0  0  0  0 
 13 11  2  0  0  0  0 
 14  6  1  0  0  0  0 
 14 11  1  0  0  0  0 
 15 10  1  0  0  0  0 
 15  7  1  0  0  0  0 
 16  1  1  0  0  0  0 
 18  1  1  0  0  0  0 
 19  2  1  0  0  0  0 
 20  2  1  0  0  0  0 
 25  6  1  0  0  0  0 
 31 13  1  0  0  0  0 
 32 14  1  0  0  0  0 
M  RAD  1  12   2 
M  END 
>  <HBA> 
4 
 
>  <HBD> 
2 
 
>  <TPSA> 
73.63 
 
>  <cid> 
39452 
 
>  <dipole> 
2.27 
 
>  <excitation_energy_1> 
5.151 
 
>  <excitation_energy_2> 
5.203 
 
>  <excitation_energy_3> 
5.475 
 
>  <excitation_energy_4> 
5.629 
 
>  <homo_energy> 
-5.981 
 
>  <homo_lumo_gap> 
6.324 
 
>  <logP> 
2.356 
 
>  <lumo_energy> 
0.343 
 
>  <melting_point> 
143.13 
 
>  <molecular_refractivity> 
61.58 
 
>  <oscillator_strength_1> 
0.0033 
 
>  <oscillator_strength_2> 
0.0009 
 
>  <oscillator_strength_3> 
0.0007 
 
>  <oscillator_strength_4> 
0.0002 
 
>  <open_babel_can_smiles> 
[NH]C(=[NH2])NCCOc1c(C)cccc1C 
 
>  <mulliken_charges> 
32 
1   -0.524234 
2   -0.535128 
3   -0.115099 
4   -0.207363 
5   -0.206681 
6   -0.141882 
7   -0.02233 
8   0.159161 
9   0.168296 
10   0.219905 
11   0.587262 
12   -0.651826 
13   -0.757955 
14   -0.587061 
15   -0.543749 
16   0.148467 
17   0.157235 
18   0.168937 
19   0.144953 
20   0.172013 
21   0.165882 
22   0.121776 
23   0.118222 
24   0.117509 
25   0.144474 
26   0.173528 
27   0.167129 
28   0.127799 
29   0.265681 
30   0.319517 
31   0.322716 
32   0.322847 
 
>  <lowdin_charges> 
32 
1   -0.441009 
2   -0.447069 
3   -0.162128 
4   -0.171561 
5   -0.170726 
6   -0.202292 
7   -0.128072 
8   -0.018997 
9   -0.018097 
10   0.075784 
11   0.123182 
12   -0.485977 
13   -0.51245 
14   -0.299548 
15   -0.242347 
16   0.15486 
17   0.157279 
18   0.16483 
19   0.153832 
20   0.165966 
21   0.161457 
22   0.153435 
23   0.153034 
24   0.152655 
25   0.153118 
26   0.163172 
27   0.154253 
28   0.134819 
29   0.246716 
30   0.2756 
31   0.27814 
32   0.278139 
 
$$$$ 
 
