PCCDB-ID:  19222 
public computational chemistry database (PCCDB) project, http://pccdb.org 
 
 21 21  0  0  0  0  0  0  0  0999 V2000 
   -1.3316    1.5091    0.2183 C   0  0  0  0  0  0  0  0  0  0  0  0 
   -1.8166    0.2144    0.0634 C   0  0  0  0  0  0  0  0  0  0  0  0 
    0.0406    1.6893    0.4064 C   0  0  0  0  0  0  0  0  0  0  0  0 
   -3.4491   -4.4526    0.8597 C   0  0  0  0  0  0  0  0  0  0  0  0 
   -3.1247   -3.7535   -0.4552 C   0  0  0  0  0  0  0  0  0  0  0  0 
    0.4510   -0.5539    0.3020 C   0  0  0  0  0  0  0  0  0  0  0  0 
   -0.9063   -0.8482    0.1049 C   0  0  0  0  0  0  0  0  0  0  0  0 
   -1.3090   -2.2704   -0.0485 C   0  0  0  0  0  0  0  0  0  0  0  0 
    0.9270    0.6850    0.4493 N   0  0  0  0  0  0  0  0  0  0  0  0 
   -2.3601   -4.5305    1.7554 O   0  0  0  0  0  0  0  0  0  0  0  0 
   -0.5264   -3.2057   -0.0135 O   0  0  0  0  0  0  0  0  0  0  0  0 
   -2.6367   -2.4084   -0.2479 O   0  0  0  0  0  0  0  0  0  0  0  0 
   -1.9992    2.3649    0.1941 H   0  0  0  0  0  0  0  0  0  0  0  0 
   -2.8734    0.0211   -0.0843 H   0  0  0  0  0  0  0  0  0  0  0  0 
    0.4506    2.6904    0.5297 H   0  0  0  0  0  0  0  0  0  0  0  0 
   -3.8436   -5.4517    0.6007 H   0  0  0  0  0  0  0  0  0  0  0  0 
   -4.2486   -3.9111    1.3790 H   0  0  0  0  0  0  0  0  0  0  0  0 
   -4.0289   -3.6391   -1.0590 H   0  0  0  0  0  0  0  0  0  0  0  0 
   -2.3766   -4.3119   -1.0255 H   0  0  0  0  0  0  0  0  0  0  0  0 
    1.1709   -1.3674    0.3390 H   0  0  0  0  0  0  0  0  0  0  0  0 
   -1.5403   -4.5775    1.2346 H   0  0  0  0  0  0  0  0  0  0  0  0 
  1  3  2  0  0  0  0 
  2  7  2  0  0  0  0 
  2  1  1  0  0  0  0 
  3  9  1  0  0  0  0 
  3 15  1  0  0  0  0 
  4 17  1  0  0  0  0 
  4 10  1  0  0  0  0 
  5 12  1  0  0  0  0 
  5  4  1  0  0  0  0 
  6 20  1  0  0  0  0 
  6  9  2  0  0  0  0 
  7  6  1  0  0  0  0 
  8 11  2  0  0  0  0 
  8  7  1  0  0  0  0 
 12  8  1  0  0  0  0 
 13  1  1  0  0  0  0 
 14  2  1  0  0  0  0 
 16  4  1  0  0  0  0 
 18  5  1  0  0  0  0 
 19  5  1  0  0  0  0 
 21 10  1  0  0  0  0 
M  END 
>  <HBA> 
4 
 
>  <HBD> 
1 
 
>  <TPSA> 
59.42 
 
>  <cid> 
19222 
 
>  <dipole> 
3.95 
 
>  <excitation_energy_1> 
4.219 
 
>  <excitation_energy_2> 
4.858 
 
>  <excitation_energy_3> 
4.918 
 
>  <excitation_energy_4> 
4.994 
 
>  <homo_energy> 
-7.187 
 
>  <homo_lumo_gap> 
5.448 
 
>  <logP> 
0.231 
 
>  <lumo_energy> 
-1.739 
 
>  <melting_point> 
62.72 
 
>  <molecular_refractivity> 
41.49 
 
>  <oscillator_strength_1> 
0.0004 
 
>  <oscillator_strength_2> 
0.0057 
 
>  <oscillator_strength_3> 
0.0031 
 
>  <oscillator_strength_4> 
0.0003 
 
>  <open_babel_can_smiles> 
OCCOC(=O)c1cccnc1 
 
>  <mulliken_charges> 
21 
1   -0.147638 
2   -0.12005 
3   0.052459 
4   -0.006581 
5   -0.106309 
6   0.028731 
7   0.029464 
8   0.620076 
9   -0.412036 
10   -0.629058 
11   -0.511479 
12   -0.470257 
13   0.147573 
14   0.170337 
15   0.152913 
16   0.125289 
17   0.149712 
18   0.161347 
19   0.173643 
20   0.178408 
21   0.413454 
 
>  <lowdin_charges> 
21 
1   -0.17536 
2   -0.107603 
3   -0.06908 
4   -0.138747 
5   -0.153976 
6   -0.062324 
7   -0.062393 
8   0.211046 
9   -0.142901 
10   -0.470683 
11   -0.282339 
12   -0.185172 
13   0.169902 
14   0.17642 
15   0.16149 
16   0.133078 
17   0.14916 
18   0.162413 
19   0.161279 
20   0.17767 
21   0.348119 
 
$$$$ 
 
