PCCDB-ID:  65520 
public computational chemistry database (PCCDB) project, http://pccdb.org 
 
 23 23  0  0  0  0  0  0  0  0999 V2000 
    4.9456    0.2717    0.1666 C   0  0  0  0  0  0  0  0  0  0  0  0 
    4.2400    1.6238    0.2562 C   0  0  0  0  0  0  0  0  0  0  0  0 
    2.4551    4.0337    0.5281 C   0  0  0  0  0  0  0  0  0  0  0  0 
    0.5427    2.6108    0.8829 C   0  0  0  0  0  0  0  0  0  0  0  0 
    1.6515    5.1626    0.6554 C   0  0  0  0  0  0  0  0  0  0  0  0 
   -0.2703    3.7248    1.0075 C   0  0  0  0  0  0  0  0  0  0  0  0 
    1.9223    2.7404    0.6411 C   0  0  0  0  0  0  0  0  0  0  0  0 
    0.2799    5.0158    0.9001 C   0  0  0  0  0  0  0  0  0  0  0  0 
    2.7393    1.4973    0.5157 C   0  0  0  0  0  0  0  0  0  0  0  0 
   -0.5595    6.1218    1.1278 N   0  0  0  0  0  0  0  0  0  0  0  0 
    2.2187    0.3941    0.6203 O   0  0  0  0  0  0  0  0  0  0  0  0 
   -0.0910    7.3241    0.5235 O   0  0  0  0  0  0  0  0  0  0  0  0 
    6.0152    0.4095   -0.0242 H   0  0  0  0  0  0  0  0  0  0  0  0 
    4.5246   -0.3368   -0.6389 H   0  0  0  0  0  0  0  0  0  0  0  0 
    4.8285   -0.2934    1.0958 H   0  0  0  0  0  0  0  0  0  0  0  0 
    4.3856    2.1987   -0.6695 H   0  0  0  0  0  0  0  0  0  0  0  0 
    4.6805    2.2388    1.0538 H   0  0  0  0  0  0  0  0  0  0  0  0 
    3.5142    4.1742    0.3345 H   0  0  0  0  0  0  0  0  0  0  0  0 
    0.1294    1.6108    0.9642 H   0  0  0  0  0  0  0  0  0  0  0  0 
    2.0689    6.1565    0.5498 H   0  0  0  0  0  0  0  0  0  0  0  0 
   -1.3349    3.6062    1.1977 H   0  0  0  0  0  0  0  0  0  0  0  0 
   -1.4990    5.9692    0.7672 H   0  0  0  0  0  0  0  0  0  0  0  0 
    0.0309    7.9148    1.2849 H   0  0  0  0  0  0  0  0  0  0  0  0 
  1  2  1  0  0  0  0 
  1 15  1  0  0  0  0 
  2  9  1  0  0  0  0 
  2 17  1  0  0  0  0 
  3  7  2  0  0  0  0 
  3  5  1  0  0  0  0 
  4 19  1  0  0  0  0 
  4  6  2  0  0  0  0 
  5  8  2  0  0  0  0 
  6 21  1  0  0  0  0 
  7  4  1  0  0  0  0 
  8  6  1  0  0  0  0 
  8 10  1  0  0  0  0 
  9 11  2  0  0  0  0 
  9  7  1  0  0  0  0 
 12 10  1  0  0  0  0 
 12 23  1  0  0  0  0 
 13  1  1  0  0  0  0 
 14  1  1  0  0  0  0 
 16  2  1  0  0  0  0 
 18  3  1  0  0  0  0 
 20  5  1  0  0  0  0 
 22 10  1  0  0  0  0 
M  END 
>  <HBA> 
3 
 
>  <HBD> 
2 
 
>  <TPSA> 
49.33 
 
>  <cid> 
65520 
 
>  <dipole> 
3.86 
 
>  <excitation_energy_1> 
3.835 
 
>  <excitation_energy_2> 
4.48 
 
>  <excitation_energy_3> 
4.682 
 
>  <excitation_energy_4> 
5.205 
 
>  <homo_energy> 
-5.978 
 
>  <homo_lumo_gap> 
4.816 
 
>  <logP> 
2.153 
 
>  <lumo_energy> 
-1.162 
 
>  <melting_point> 
127.67 
 
>  <molecular_refractivity> 
46.67 
 
>  <oscillator_strength_1> 
0.0 
 
>  <oscillator_strength_2> 
0.4103 
 
>  <oscillator_strength_3> 
0.0007 
 
>  <oscillator_strength_4> 
0.0131 
 
>  <open_babel_can_smiles> 
CCC(=O)c1ccc(cc1)NO 
 
>  <mulliken_charges> 
23 
1   -0.430764 
2   -0.361201 
3   -0.194796 
4   -0.166139 
5   -0.161632 
6   -0.182991 
7   0.082083 
8   0.324233 
9   0.40358 
10   -0.429122 
11   -0.474588 
12   -0.508061 
13   0.135164 
14   0.160635 
15   0.159885 
16   0.159678 
17   0.158827 
18   0.135321 
19   0.163071 
20   0.141174 
21   0.12913 
22   0.335434 
23   0.421078 
 
>  <lowdin_charges> 
23 
1   -0.438268 
2   -0.310458 
3   -0.136406 
4   -0.118331 
5   -0.190327 
6   -0.18834 
7   -0.071646 
8   0.054356 
9   0.157226 
10   -0.183849 
11   -0.254833 
12   -0.398029 
13   0.146088 
14   0.159838 
15   0.158561 
16   0.160149 
17   0.160543 
18   0.160256 
19   0.176756 
20   0.166933 
21   0.156229 
22   0.275365 
23   0.358185 
 
$$$$ 
 
