PCCDB-ID:  53360 
public computational chemistry database (PCCDB) project, http://pccdb.org 
 
 22 23  0  0  0  0  0  0  0  0999 V2000 
    2.4731    0.7018    0.0157 C   0  0  0  0  0  0  0  0  0  0  0  0 
    2.4754   -0.6948   -0.0131 C   0  0  0  0  0  0  0  0  0  0  0  0 
   -2.4917    0.6771   -0.3485 C   0  0  0  0  0  0  0  0  0  0  0  0 
   -2.4886   -0.6863    0.3517 C   0  0  0  0  0  0  0  0  0  0  0  0 
    1.2603    1.3851    0.0289 C   0  0  0  0  0  0  0  0  0  0  0  0 
    1.2647   -1.3819   -0.0294 C   0  0  0  0  0  0  0  0  0  0  0  0 
   -1.2625    1.4934    0.0706 C   0  0  0  0  0  0  0  0  0  0  0  0 
   -1.2577   -1.4983   -0.0706 C   0  0  0  0  0  0  0  0  0  0  0  0 
    0.0349    0.7028    0.0165 C   0  0  0  0  0  0  0  0  0  0  0  0 
    0.0372   -0.7035   -0.0176 C   0  0  0  0  0  0  0  0  0  0  0  0 
    3.4097    1.2534    0.0251 H   0  0  0  0  0  0  0  0  0  0  0  0 
    3.4137   -1.2434   -0.0199 H   0  0  0  0  0  0  0  0  0  0  0  0 
   -3.4062    1.2355   -0.1143 H   0  0  0  0  0  0  0  0  0  0  0  0 
   -2.4842    0.5252   -1.4372 H   0  0  0  0  0  0  0  0  0  0  0  0 
   -3.4018   -1.2477    0.1196 H   0  0  0  0  0  0  0  0  0  0  0  0 
   -2.4789   -0.5345    1.4404 H   0  0  0  0  0  0  0  0  0  0  0  0 
    1.2553    2.4734    0.0502 H   0  0  0  0  0  0  0  0  0  0  0  0 
    1.2633   -2.4702   -0.0526 H   0  0  0  0  0  0  0  0  0  0  0  0 
   -1.4124    1.8566    1.0993 H   0  0  0  0  0  0  0  0  0  0  0  0 
   -1.1710    2.3930   -0.5516 H   0  0  0  0  0  0  0  0  0  0  0  0 
   -1.4085   -1.8608   -1.0994 H   0  0  0  0  0  0  0  0  0  0  0  0 
   -1.1621   -2.3983    0.5505 H   0  0  0  0  0  0  0  0  0  0  0  0 
  1 11  1  0  0  0  0 
  1  5  1  0  0  0  0 
  2  1  2  0  0  0  0 
  3 13  1  0  0  0  0 
  3  7  1  0  0  0  0 
  3  4  1  0  0  0  0 
  4 16  1  0  0  0  0 
  5 17  1  0  0  0  0 
  6 10  2  0  0  0  0 
  6  2  1  0  0  0  0 
  7 19  1  0  0  0  0 
  8 10  1  0  0  0  0 
  8  4  1  0  0  0  0 
  8 22  1  0  0  0  0 
  9  5  2  0  0  0  0 
  9  7  1  0  0  0  0 
 10  9  1  0  0  0  0 
 12  2  1  0  0  0  0 
 14  3  1  0  0  0  0 
 15  4  1  0  0  0  0 
 18  6  1  0  0  0  0 
 20  7  1  0  0  0  0 
 21  8  1  0  0  0  0 
M  END 
>  <HBA> 
0 
 
>  <HBD> 
0 
 
>  <TPSA> 
0.0 
 
>  <cid> 
53360 
 
>  <dipole> 
0.59 
 
>  <excitation_energy_1> 
5.142 
 
>  <excitation_energy_2> 
5.685 
 
>  <excitation_energy_3> 
5.891 
 
>  <excitation_energy_4> 
6.054 
 
>  <homo_energy> 
-6.21 
 
>  <homo_lumo_gap> 
6.346 
 
>  <logP> 
2.565 
 
>  <lumo_energy> 
0.136 
 
>  <melting_point> 
33.24 
 
>  <molecular_refractivity> 
43.87 
 
>  <oscillator_strength_1> 
0.0077 
 
>  <oscillator_strength_2> 
0.0069 
 
>  <oscillator_strength_3> 
0.0085 
 
>  <oscillator_strength_4> 
0.031 
 
>  <open_babel_can_smiles> 
C1CCc2c(C1)cccc2 
 
>  <mulliken_charges> 
22 
1   -0.129701 
2   -0.129855 
3   -0.265296 
4   -0.26533 
5   -0.187797 
6   -0.187806 
7   -0.340124 
8   -0.340166 
9   0.120151 
10   0.120238 
11   0.123609 
12   0.123608 
13   0.132299 
14   0.136429 
15   0.132294 
16   0.13645 
17   0.117363 
18   0.117383 
19   0.149535 
20   0.143612 
21   0.149484 
22   0.143621 
 
>  <lowdin_charges> 
22 
1   -0.161851 
2   -0.161841 
3   -0.274566 
4   -0.274566 
5   -0.162328 
6   -0.162335 
7   -0.275722 
8   -0.275714 
9   -0.016103 
10   -0.016114 
11   0.155316 
12   0.155298 
13   0.145256 
14   0.139213 
15   0.145259 
16   0.139224 
17   0.149851 
18   0.149854 
19   0.14965 
20   0.151298 
21   0.149622 
22   0.1513 
 
$$$$ 
 
