PCCDB-ID:  49196 
public computational chemistry database (PCCDB) project, http://pccdb.org 
 
 35 35  0  0  1  0  0  0  0  0999 V2000 
    1.3413    1.3878    2.7577 C   0  0  0  0  0  0  0  0  0  0  0  0 
    7.5035   -0.9349    2.1725 C   0  0  0  0  0  0  0  0  0  0  0  0 
    8.0586    1.4344    1.6373 C   0  0  0  0  0  0  0  0  0  0  0  0 
    2.5319    1.6189   -0.1431 C   0  0  0  0  0  0  0  0  0  0  0  0 
    2.7628    1.8297    2.3809 C   0  0  0  0  0  0  0  0  0  0  0  0 
    5.6323    0.6871    2.1617 C   0  0  0  0  0  0  0  0  0  0  0  0 
    7.0957    0.3243    1.9808 C   0  0  0  0  0  0  0  0  0  0  0  0 
    3.3013    1.1465    1.1016 C   0  0  2  0  0  0  0  0  0  0  0  0 
    5.2774    2.7183    0.6281 C   0  0  0  0  0  0  0  0  0  0  0  0 
    5.2504    0.4651   -0.3418 C   0  0  0  0  0  0  0  0  0  0  0  0 
    5.6670    2.3466   -1.6314 C   0  0  0  0  0  0  0  0  0  0  0  0 
    4.8797    1.2693    0.9080 C   0  0  1  0  0  0  0  0  0  0  0  0 
    5.6188    3.2010   -0.4996 N   0  0  0  0  0  0  0  0  0  0  0  0 
    5.6055    0.9394   -1.4684 N   0  0  0  0  0  0  0  0  0  0  0  0 
    5.2501    3.5875    1.6663 O   0  0  0  0  0  0  0  0  0  0  0  0 
    5.1150   -0.8772   -0.2669 O   0  0  0  0  0  0  0  0  0  0  0  0 
    5.7830    2.8217   -2.7383 O   0  0  0  0  0  0  0  0  0  0  0  0 
    1.0351    1.8501    3.7022 H   0  0  0  0  0  0  0  0  0  0  0  0 
    1.2870    0.3001    2.8863 H   0  0  0  0  0  0  0  0  0  0  0  0 
    0.6062    1.6740    1.9998 H   0  0  0  0  0  0  0  0  0  0  0  0 
    8.5485   -1.2153    2.0765 H   0  0  0  0  0  0  0  0  0  0  0  0 
    6.8156   -1.7346    2.4407 H   0  0  0  0  0  0  0  0  0  0  0  0 
    9.0915    1.0768    1.6594 H   0  0  0  0  0  0  0  0  0  0  0  0 
    7.9689    2.2718    2.3417 H   0  0  0  0  0  0  0  0  0  0  0  0 
    7.8686    1.8450    0.6392 H   0  0  0  0  0  0  0  0  0  0  0  0 
    1.4619    1.4306   -0.0206 H   0  0  0  0  0  0  0  0  0  0  0  0 
    2.8510    1.0936   -1.0474 H   0  0  0  0  0  0  0  0  0  0  0  0 
    2.6647    2.6937   -0.3112 H   0  0  0  0  0  0  0  0  0  0  0  0 
    3.4120    1.6016    3.2368 H   0  0  0  0  0  0  0  0  0  0  0  0 
    2.7725    2.9195    2.2467 H   0  0  0  0  0  0  0  0  0  0  0  0 
    5.5611    1.4044    2.9892 H   0  0  0  0  0  0  0  0  0  0  0  0 
    5.0810   -0.1947    2.5160 H   0  0  0  0  0  0  0  0  0  0  0  0 
    3.1232    0.0673    1.2167 H   0  0  0  0  0  0  0  0  0  0  0  0 
    4.9118    3.1519    2.4630 H   0  0  0  0  0  0  0  0  0  0  0  0 
    5.0342   -1.1584    0.6574 H   0  0  0  0  0  0  0  0  0  0  0  0 
  1 19  1  0  0  0  0 
  1 18  1  0  0  0  0 
  2 22  1  0  0  0  0 
  3 23  1  0  0  0  0 
  3  7  1  0  0  0  0 
  3 24  1  0  0  0  0 
  4 26  1  0  0  0  0 
  4  8  1  0  0  0  0 
  5  1  1  0  0  0  0 
  5 29  1  0  0  0  0 
  6 32  1  0  0  0  0 
  6 31  1  0  0  0  0 
  7  6  1  0  0  0  0 
  7  2  2  0  0  0  0 
  8 33  1  1  0  0  0 
  8  5  1  0  0  0  0 
  9 12  1  0  0  0  0 
  9 15  1  0  0  0  0 
 10 16  1  0  0  0  0 
 10 12  1  0  0  0  0 
 11 14  1  0  0  0  0 
 11 13  2  0  0  0  0 
 12  8  1  0  0  0  0 
 12  6  1  1  0  0  0 
 13  9  2  0  0  0  0 
 14 10  2  0  0  0  0 
 15 34  1  0  0  0  0 
 16 35  1  0  0  0  0 
 17 11  2  0  0  0  0 
 20  1  1  0  0  0  0 
 21  2  1  0  0  0  0 
 25  3  1  0  0  0  0 
 27  4  1  0  0  0  0 
 28  4  1  0  0  0  0 
 30  5  1  0  0  0  0 
M  END 
>  <HBA> 
5 
 
>  <HBD> 
2 
 
>  <TPSA> 
75.27 
 
>  <cid> 
49196 
 
>  <dipole> 
9.82 
 
>  <excitation_energy_1> 
3.98 
 
>  <excitation_energy_2> 
4.177 
 
>  <excitation_energy_3> 
5.016 
 
>  <excitation_energy_4> 
5.171 
 
>  <homo_energy> 
-6.846 
 
>  <homo_lumo_gap> 
5.361 
 
>  <logP> 
2.009 
 
>  <lumo_energy> 
-1.486 
 
>  <melting_point> 
122.4 
 
>  <molecular_refractivity> 
71.37 
 
>  <oscillator_strength_1> 
0.0003 
 
>  <oscillator_strength_2> 
0.0002 
 
>  <oscillator_strength_3> 
0.0172 
 
>  <oscillator_strength_4> 
0.0041 
 
>  <open_babel_can_smiles> 
CC[C@H]([C@@]1(CC(=C)C)C(=N[C](=[N]=C1O)=O)O)C 
 
>  <mulliken_charges> 
35 
1   -0.451468 
2   -0.395363 
3   -0.523365 
4   -0.490912 
5   -0.304062 
6   -0.407339 
7   0.245206 
8   -0.062092 
9   0.534573 
10   0.538153 
11   0.614023 
12   -0.122354 
13   -0.465329 
14   -0.466299 
15   -0.582987 
16   -0.575018 
17   -0.432405 
18   0.156956 
19   0.149151 
20   0.164117 
21   0.155101 
22   0.129768 
23   0.166103 
24   0.160659 
25   0.186553 
26   0.161318 
27   0.187635 
28   0.175422 
29   0.13392 
30   0.158785 
31   0.151188 
32   0.14578 
33   0.12751 
34   0.42066 
35   0.416412 
 
>  <lowdin_charges> 
35 
1   -0.441879 
2   -0.348352 
3   -0.445407 
4   -0.455016 
5   -0.291714 
6   -0.282534 
7   0.00052 
8   -0.113384 
9   0.146429 
10   0.150802 
11   0.169989 
12   -0.064 
13   -0.186717 
14   -0.184791 
15   -0.332625 
16   -0.327457 
17   -0.212296 
18   0.158678 
19   0.148739 
20   0.157775 
21   0.165359 
22   0.151429 
23   0.164841 
24   0.161077 
25   0.17277 
26   0.159566 
27   0.171658 
28   0.1623 
29   0.140303 
30   0.149063 
31   0.153545 
32   0.150895 
33   0.138346 
34   0.355773 
35   0.356317 
 
$$$$ 
 
