PCCDB-ID:  31841 
public computational chemistry database (PCCDB) project, http://pccdb.org 
 
 22 22  0  0  0  0  0  0  0  0999 V2000 
    0.9522    0.2583   -0.2242 C   0  0  0  0  0  0  0  0  0  0  0  0 
    2.5395    1.7874    1.0072 C   0  0  0  0  0  0  0  0  0  0  0  0 
    2.4632   -0.6786    1.5671 C   0  0  0  0  0  0  0  0  0  0  0  0 
    6.8309    0.7346   -0.3096 C   0  0  0  0  0  0  0  0  0  0  0  0 
    5.4725    1.1423   -0.4856 C   0  0  0  0  0  0  0  0  0  0  0  0 
    6.9724   -0.6107   -0.1193 C   0  0  0  0  0  0  0  0  0  0  0  0 
    4.5888    0.0975   -0.4150 C   0  0  0  0  0  0  0  0  0  0  0  0 
    2.3115    0.3740    0.4661 C   0  0  0  0  0  0  0  0  0  0  0  0 
    3.2550    0.1000   -0.6360 O   0  0  0  0  0  0  0  0  0  0  0  0 
    5.4390   -1.4291   -0.1461 S   0  0  0  0  0  0  0  0  0  0  0  0 
    0.1437    0.4521    0.4886 H   0  0  0  0  0  0  0  0  0  0  0  0 
    0.8185   -0.7456   -0.6395 H   0  0  0  0  0  0  0  0  0  0  0  0 
    0.8764    0.9813   -1.0426 H   0  0  0  0  0  0  0  0  0  0  0  0 
    1.7931    2.0207    1.7748 H   0  0  0  0  0  0  0  0  0  0  0  0 
    2.4482    2.5266    0.2042 H   0  0  0  0  0  0  0  0  0  0  0  0 
    3.5313    1.8838    1.4591 H   0  0  0  0  0  0  0  0  0  0  0  0 
    1.7081   -0.5175    2.3445 H   0  0  0  0  0  0  0  0  0  0  0  0 
    3.4489   -0.6262    2.0390 H   0  0  0  0  0  0  0  0  0  0  0  0 
    2.3269   -1.6863    1.1605 H   0  0  0  0  0  0  0  0  0  0  0  0 
    7.6692    1.4229   -0.3328 H   0  0  0  0  0  0  0  0  0  0  0  0 
    5.1567    2.1608   -0.6792 H   0  0  0  0  0  0  0  0  0  0  0  0 
    7.8840   -1.1737    0.0296 H   0  0  0  0  0  0  0  0  0  0  0  0 
  1  8  1  0  0  0  0 
  1 11  1  0  0  0  0 
  2 16  1  0  0  0  0 
  2 14  1  0  0  0  0 
  3 18  1  0  0  0  0 
  3 17  1  0  0  0  0 
  4  6  2  0  0  0  0 
  5  7  2  0  0  0  0 
  5  4  1  0  0  0  0 
  6 22  1  0  0  0  0 
  7 10  1  0  0  0  0 
  8  2  1  0  0  0  0 
  8  3  1  0  0  0  0 
  9  7  1  0  0  0  0 
  9  8  1  0  0  0  0 
 10  6  1  0  0  0  0 
 12  1  1  0  0  0  0 
 13  1  1  0  0  0  0 
 15  2  1  0  0  0  0 
 19  3  1  0  0  0  0 
 20  4  1  0  0  0  0 
 21  5  1  0  0  0  0 
M  END 
>  <HBA> 
2 
 
>  <HBD> 
0 
 
>  <TPSA> 
37.47 
 
>  <cid> 
31841 
 
>  <dipole> 
1.73 
 
>  <excitation_energy_1> 
5.225 
 
>  <excitation_energy_2> 
5.309 
 
>  <excitation_energy_3> 
5.504 
 
>  <excitation_energy_4> 
5.718 
 
>  <homo_energy> 
-5.823 
 
>  <homo_lumo_gap> 
5.774 
 
>  <logP> 
2.925 
 
>  <lumo_energy> 
-0.049 
 
>  <melting_point> 
16.68 
 
>  <molecular_refractivity> 
45.27 
 
>  <oscillator_strength_1> 
0.0954 
 
>  <oscillator_strength_2> 
0.0612 
 
>  <oscillator_strength_3> 
0.0025 
 
>  <oscillator_strength_4> 
0.0627 
 
>  <open_babel_can_smiles> 
CC(Oc1cccs1)(C)C 
 
>  <mulliken_charges> 
22 
1   -0.446081 
2   -0.45811 
3   -0.465171 
4   -0.107279 
5   -0.123712 
6   -0.345133 
7   0.112613 
8   0.305632 
9   -0.519955 
10   0.219973 
11   0.142781 
12   0.156941 
13   0.156237 
14   0.14592 
15   0.151647 
16   0.159628 
17   0.146016 
18   0.166642 
19   0.157305 
20   0.13833 
21   0.138305 
22   0.167468 
 
>  <lowdin_charges> 
22 
1   -0.444434 
2   -0.456149 
3   -0.454654 
4   -0.181064 
5   -0.215673 
6   -0.330669 
7   -0.051704 
8   0.144875 
9   -0.21897 
10   0.277646 
11   0.153905 
12   0.158105 
13   0.158879 
14   0.156938 
15   0.155892 
16   0.159396 
17   0.157157 
18   0.16147 
19   0.157582 
20   0.164627 
21   0.166528 
22   0.180315 
 
$$$$ 
 
