PCCDB-ID:  73097 
public computational chemistry database (PCCDB) project, http://pccdb.org 
 
 28 28  0  0  1  0  0  0  0  0999 V2000 
    2.1635    1.3018    0.0059 C   0  0  0  0  0  0  0  0  0  0  0  0 
    2.1476   -1.5354    2.4136 C   0  0  0  0  0  0  0  0  0  0  0  0 
    9.0042   -1.5175    1.3396 C   0  0  0  0  0  0  0  0  0  0  0  0 
    5.1449   -0.2484    3.8358 C   0  0  0  0  0  0  0  0  0  0  0  0 
    2.0193    0.0576    0.4765 C   0  0  0  0  0  0  0  0  0  0  0  0 
    4.2135   -0.3833    1.4785 C   0  0  0  0  0  0  0  0  0  0  0  0 
    2.8857   -0.6059    1.4766 C   0  0  0  0  0  0  0  0  0  0  0  0 
    7.5772   -1.6636    1.7903 C   0  0  0  0  0  0  0  0  0  0  0  0 
    6.6814   -0.5308    1.8850 C   0  0  0  0  0  0  0  0  0  0  0  0 
    6.9601   -2.8315    2.1189 C   0  0  0  0  0  0  0  0  0  0  0  0 
    5.2682   -0.8940    2.4385 C   0  0  1  0  0  0  0  0  0  0  0  0 
    6.9450    0.6310    1.6005 O   0  0  0  0  0  0  0  0  0  0  0  0 
    7.4968   -4.0635    2.1150 O   0  0  0  0  0  0  0  0  0  0  0  0 
    5.2723   -2.7668    2.5995 S   0  0  0  0  0  0  0  0  0  0  0  0 
    1.4833    1.7053   -0.7389 H   0  0  0  0  0  0  0  0  0  0  0  0 
    2.9580    1.9588    0.3503 H   0  0  0  0  0  0  0  0  0  0  0  0 
    1.6790   -2.3535    1.8502 H   0  0  0  0  0  0  0  0  0  0  0  0 
    1.3373   -1.0005    2.9256 H   0  0  0  0  0  0  0  0  0  0  0  0 
    2.7834   -1.9853    3.1785 H   0  0  0  0  0  0  0  0  0  0  0  0 
    9.1893   -0.4605    1.1270 H   0  0  0  0  0  0  0  0  0  0  0  0 
    9.2176   -2.0808    0.4204 H   0  0  0  0  0  0  0  0  0  0  0  0 
    9.7246   -1.8341    2.1064 H   0  0  0  0  0  0  0  0  0  0  0  0 
    5.2662    0.8337    3.7219 H   0  0  0  0  0  0  0  0  0  0  0  0 
    5.9225   -0.6208    4.5111 H   0  0  0  0  0  0  0  0  0  0  0  0 
    4.1665   -0.4466    4.2809 H   0  0  0  0  0  0  0  0  0  0  0  0 
    1.1680   -0.5333    0.1325 H   0  0  0  0  0  0  0  0  0  0  0  0 
    4.6154    0.2864    0.7222 H   0  0  0  0  0  0  0  0  0  0  0  0 
    8.4222   -4.0015    1.8209 H   0  0  0  0  0  0  0  0  0  0  0  0 
  1 16  1  0  0  0  0 
  1  5  2  0  0  0  0 
  2 18  1  0  0  0  0 
  2 19  1  0  0  0  0 
  3  8  1  0  0  0  0 
  3 22  1  0  0  0  0 
  4 25  1  0  0  0  0 
  4 24  1  0  0  0  0 
  5  7  1  0  0  0  0 
  7  6  2  0  0  0  0 
  7  2  1  0  0  0  0 
  8  9  1  0  0  0  0 
  8 10  2  0  0  0  0 
  9 11  1  0  0  0  0 
 10 14  1  0  0  0  0 
 11  6  1  6  0  0  0 
 11 14  1  0  0  0  0 
 11  4  1  0  0  0  0 
 12  9  2  0  0  0  0 
 13 10  1  0  0  0  0 
 15  1  1  0  0  0  0 
 17  2  1  0  0  0  0 
 20  3  1  0  0  0  0 
 21  3  1  0  0  0  0 
 23  4  1  0  0  0  0 
 26  5  1  0  0  0  0 
 27  6  1  0  0  0  0 
 28 13  1  0  0  0  0 
M  END 
>  <HBA> 
3 
 
>  <HBD> 
1 
 
>  <TPSA> 
62.6 
 
>  <cid> 
73097 
 
>  <dipole> 
1.97 
 
>  <excitation_energy_1> 
4.142 
 
>  <excitation_energy_2> 
4.181 
 
>  <excitation_energy_3> 
4.432 
 
>  <excitation_energy_4> 
4.603 
 
>  <homo_energy> 
-5.948 
 
>  <homo_lumo_gap> 
4.936 
 
>  <logP> 
2.983 
 
>  <lumo_energy> 
-1.012 
 
>  <melting_point> 
54.61 
 
>  <molecular_refractivity> 
60.86 
 
>  <oscillator_strength_1> 
0.0056 
 
>  <oscillator_strength_2> 
0.0526 
 
>  <oscillator_strength_3> 
0.0057 
 
>  <oscillator_strength_4> 
0.0803 
 
>  <open_babel_can_smiles> 
C=C/C(=C/[C@@]1(C)SC(=C(C1=O)C)O)/C 
 
>  <mulliken_charges> 
28 
1   -0.332989 
2   -0.532825 
3   -0.559755 
4   -0.431739 
5   -0.113877 
6   -0.168753 
7   0.163353 
8   0.091219 
9   0.406246 
10   0.096159 
11   -0.22253 
12   -0.515457 
13   -0.584392 
14   0.181754 
15   0.142212 
16   0.15186 
17   0.166337 
18   0.164855 
19   0.163354 
20   0.202418 
21   0.156559 
22   0.156562 
23   0.181883 
24   0.159135 
25   0.160572 
26   0.127073 
27   0.161519 
28   0.429247 
 
>  <lowdin_charges> 
28 
1   -0.327018 
2   -0.448586 
3   -0.450585 
4   -0.430408 
5   -0.149466 
6   -0.179284 
7   -0.002047 
8   -0.139093 
9   0.136074 
10   0.001567 
11   -0.091625 
12   -0.274443 
13   -0.331866 
14   0.186703 
15   0.162024 
16   0.163748 
17   0.16546 
18   0.163442 
19   0.161996 
20   0.184925 
21   0.155066 
22   0.156182 
23   0.168842 
24   0.159378 
25   0.158591 
26   0.153619 
27   0.175087 
28   0.371718 
 
$$$$ 
 
