PCCDB-ID:  48794 
public computational chemistry database (PCCDB) project, http://pccdb.org 
 
 33 33  0  0  1  0  0  0  0  0999 V2000 
    4.5197    2.3943    0.6603 C   0  0  0  0  0  0  0  0  0  0  0  0 
    1.2434    0.4761    0.9288 C   0  0  0  0  0  0  0  0  0  0  0  0 
    6.5388   -0.6938   -2.8041 C   0  0  0  0  0  0  0  0  0  0  0  0 
    3.9166   -1.0013    0.9920 C   0  0  0  0  0  0  0  0  0  0  0  0 
    4.1086    1.3204    0.2832 C   0  0  0  0  0  0  0  0  0  0  0  0 
    2.0368    0.0981   -0.3265 C   0  0  0  0  0  0  0  0  0  0  0  0 
    5.8383   -0.3230   -1.4904 C   0  0  0  0  0  0  0  0  0  0  0  0 
    3.7842    0.5580   -2.6529 C   0  0  0  0  0  0  0  0  0  0  0  0 
    3.8602   -1.8064   -1.9848 C   0  0  0  0  0  0  0  0  0  0  0  0 
    2.4940   -1.0571   -3.7039 C   0  0  0  0  0  0  0  0  0  0  0  0 
    3.5867    0.0074   -0.1410 C   0  0  2  0  0  0  0  0  0  0  0  0 
    4.2774   -0.3958   -1.5491 C   0  0  1  0  0  0  0  0  0  0  0  0 
    3.0185    0.2542   -3.6253 N   0  0  0  0  0  0  0  0  0  0  0  0 
    3.0726   -2.1016   -2.9383 N   0  0  0  0  0  0  0  0  0  0  0  0 
    4.2293    1.8283   -2.6041 O   0  0  0  0  0  0  0  0  0  0  0  0 
    4.4061   -2.8532   -1.3202 O   0  0  0  0  0  0  0  0  0  0  0  0 
    1.5634   -1.2954   -4.4405 O   0  0  0  0  0  0  0  0  0  0  0  0 
    4.8678    3.3456    0.9972 H   0  0  0  0  0  0  0  0  0  0  0  0 
    0.1876    0.5991    0.6670 H   0  0  0  0  0  0  0  0  0  0  0  0 
    1.5939    1.4219    1.3557 H   0  0  0  0  0  0  0  0  0  0  0  0 
    1.2987   -0.2930    1.7058 H   0  0  0  0  0  0  0  0  0  0  0  0 
    7.6236   -0.6162   -2.6789 H   0  0  0  0  0  0  0  0  0  0  0  0 
    6.2475   -0.0215   -3.6170 H   0  0  0  0  0  0  0  0  0  0  0  0 
    6.3096   -1.7194   -3.1108 H   0  0  0  0  0  0  0  0  0  0  0  0 
    3.5407   -0.6172    1.9426 H   0  0  0  0  0  0  0  0  0  0  0  0 
    4.9954   -1.1406    1.1189 H   0  0  0  0  0  0  0  0  0  0  0  0 
    3.4397   -1.9680    0.8086 H   0  0  0  0  0  0  0  0  0  0  0  0 
    1.8218    0.8302   -1.1110 H   0  0  0  0  0  0  0  0  0  0  0  0 
    1.6901   -0.8732   -0.6990 H   0  0  0  0  0  0  0  0  0  0  0  0 
    6.1334    0.6854   -1.1877 H   0  0  0  0  0  0  0  0  0  0  0  0 
    6.2112   -0.9711   -0.6873 H   0  0  0  0  0  0  0  0  0  0  0  0 
    4.5930    2.0278   -1.7211 H   0  0  0  0  0  0  0  0  0  0  0  0 
    5.0082   -2.5375   -0.6302 H   0  0  0  0  0  0  0  0  0  0  0  0 
  1 18  1  0  0  0  0 
  2 20  1  0  0  0  0 
  2 21  1  0  0  0  0 
  3 22  1  0  0  0  0 
  3  7  1  0  0  0  0 
  4 26  1  0  0  0  0 
  4 25  1  0  0  0  0 
  5  1  3  0  0  0  0 
  6 11  1  0  0  0  0 
  6  2  1  0  0  0  0 
  7 30  1  0  0  0  0 
  7 31  1  0  0  0  0 
  8 15  1  0  0  0  0 
  8 12  1  0  0  0  0 
  9 12  1  0  0  0  0 
  9 16  1  0  0  0  0 
 10 13  2  0  0  0  0 
 10 14  1  0  0  0  0 
 11  5  1  1  0  0  0 
 11  4  1  0  0  0  0 
 12  7  1  1  0  0  0 
 12 11  1  0  0  0  0 
 13  8  2  0  0  0  0 
 14  9  2  0  0  0  0 
 15 32  1  0  0  0  0 
 16 33  1  0  0  0  0 
 17 10  2  0  0  0  0 
 19  2  1  0  0  0  0 
 23  3  1  0  0  0  0 
 24  3  1  0  0  0  0 
 27  4  1  0  0  0  0 
 28  6  1  0  0  0  0 
 29  6  1  0  0  0  0 
M  END 
>  <HBA> 
5 
 
>  <HBD> 
2 
 
>  <TPSA> 
75.27 
 
>  <cid> 
48794 
 
>  <dipole> 
10.06 
 
>  <excitation_energy_1> 
3.921 
 
>  <excitation_energy_2> 
4.132 
 
>  <excitation_energy_3> 
5.211 
 
>  <excitation_energy_4> 
5.366 
 
>  <homo_energy> 
-6.833 
 
>  <homo_lumo_gap> 
5.271 
 
>  <logP> 
1.456 
 
>  <lumo_energy> 
-1.562 
 
>  <melting_point> 
175.62 
 
>  <molecular_refractivity> 
69.75 
 
>  <oscillator_strength_1> 
0.0003 
 
>  <oscillator_strength_2> 
0.0002 
 
>  <oscillator_strength_3> 
0.0016 
 
>  <oscillator_strength_4> 
0.0328 
 
>  <open_babel_can_smiles> 
CC[C@@]1(C(=N[C](=[N]=C1O)=O)O)[C@@](C#C)(CC)C 
 
>  <mulliken_charges> 
33 
1   -0.514369 
2   -0.461221 
3   -0.469871 
4   -0.506025 
5   0.346356 
6   -0.283893 
7   -0.293954 
8   0.534862 
9   0.535245 
10   0.61266 
11   -0.042779 
12   -0.141535 
13   -0.464822 
14   -0.464965 
15   -0.58977 
16   -0.580576 
17   -0.431935 
18   0.215582 
19   0.166033 
20   0.159478 
21   0.151011 
22   0.1599 
23   0.18478 
24   0.177424 
25   0.185013 
26   0.1529 
27   0.182852 
28   0.180364 
29   0.171888 
30   0.157826 
31   0.134674 
32   0.415449 
33   0.421418 
 
>  <lowdin_charges> 
33 
1   -0.248881 
2   -0.4475 
3   -0.451386 
4   -0.449816 
5   -0.042841 
6   -0.275945 
7   -0.279109 
8   0.14693 
9   0.14268 
10   0.167193 
11   0.023603 
12   -0.057275 
13   -0.185192 
14   -0.180588 
15   -0.336195 
16   -0.332145 
17   -0.211769 
18   0.217274 
19   0.163265 
20   0.157116 
21   0.151497 
22   0.15989 
23   0.169179 
24   0.163275 
25   0.174209 
26   0.150879 
27   0.166972 
28   0.167303 
29   0.16187 
30   0.157966 
31   0.142422 
32   0.357057 
33   0.358062 
 
$$$$ 
 
