PCCDB-ID:  13598 
public computational chemistry database (PCCDB) project, http://pccdb.org 
 
 24 24  0  0  1  0  0  0  0  0999 V2000 
    4.2818    0.0324   -2.9841 C   0  0  0  0  0  0  0  0  0  0  0  0 
    0.8526   -0.1855   -2.0941 C   0  0  0  0  0  0  0  0  0  0  0  0 
    3.7831    0.5330   -1.6207 C   0  0  0  0  0  0  0  0  0  0  0  0 
    3.1728   -2.9762   -0.8440 C   0  0  0  0  0  0  0  0  0  0  0  0 
    2.1284   -2.4339   -1.8342 C   0  0  0  0  0  0  0  0  0  0  0  0 
    3.9470   -1.7243   -0.3509 C   0  0  0  0  0  0  0  0  0  0  0  0 
    1.7242   -1.0839   -1.2140 C   0  0  1  0  0  0  0  0  0  0  0  0 
    3.0673   -0.4782   -0.6930 C   0  0  2  0  0  0  0  0  0  0  0  0 
    3.4612   -0.2739   -3.6407 H   0  0  0  0  0  0  0  0  0  0  0  0 
    4.9612   -0.8220   -2.8856 H   0  0  0  0  0  0  0  0  0  0  0  0 
    4.8332    0.8275   -3.4998 H   0  0  0  0  0  0  0  0  0  0  0  0 
   -0.0911   -0.6872   -2.3402 H   0  0  0  0  0  0  0  0  0  0  0  0 
    1.3432    0.0712   -3.0391 H   0  0  0  0  0  0  0  0  0  0  0  0 
    0.6012    0.7528   -1.5844 H   0  0  0  0  0  0  0  0  0  0  0  0 
    3.1228    1.3960   -1.7813 H   0  0  0  0  0  0  0  0  0  0  0  0 
    4.6468    0.9235   -1.0637 H   0  0  0  0  0  0  0  0  0  0  0  0 
    3.8313   -3.7318   -1.2867 H   0  0  0  0  0  0  0  0  0  0  0  0 
    2.6592   -3.4567   -0.0014 H   0  0  0  0  0  0  0  0  0  0  0  0 
    1.2745   -3.1093   -1.9669 H   0  0  0  0  0  0  0  0  0  0  0  0 
    2.5778   -2.2810   -2.8240 H   0  0  0  0  0  0  0  0  0  0  0  0 
    4.9223   -1.6533   -0.8452 H   0  0  0  0  0  0  0  0  0  0  0  0 
    4.1545   -1.7843    0.7231 H   0  0  0  0  0  0  0  0  0  0  0  0 
    1.1335   -1.3242   -0.3159 H   0  0  0  0  0  0  0  0  0  0  0  0 
    2.8510    0.0807    0.2271 H   0  0  0  0  0  0  0  0  0  0  0  0 
  1 10  1  0  0  0  0 
  1  3  1  0  0  0  0 
  2 14  1  0  0  0  0 
  2  7  1  0  0  0  0 
  3 16  1  0  0  0  0 
  3  8  1  0  0  0  0 
  4  6  1  0  0  0  0 
  4 18  1  0  0  0  0 
  5  7  1  0  0  0  0 
  5  4  1  0  0  0  0 
  6 22  1  0  0  0  0 
  7  8  1  0  0  0  0 
  7 23  1  1  0  0  0 
  8  6  1  0  0  0  0 
  8 24  1  1  0  0  0 
  9  1  1  0  0  0  0 
 11  1  1  0  0  0  0 
 12  2  1  0  0  0  0 
 13  2  1  0  0  0  0 
 15  3  1  0  0  0  0 
 17  4  1  0  0  0  0 
 19  5  1  0  0  0  0 
 20  5  1  0  0  0  0 
 21  6  1  0  0  0  0 
M  END 
>  <HBA> 
0 
 
>  <HBD> 
0 
 
>  <TPSA> 
0.0 
 
>  <cid> 
13598 
 
>  <dipole> 
0.12 
 
>  <excitation_energy_1> 
7.343 
 
>  <excitation_energy_2> 
7.441 
 
>  <excitation_energy_3> 
7.731 
 
>  <excitation_energy_4> 
7.763 
 
>  <homo_energy> 
-7.91 
 
>  <homo_lumo_gap> 
9.949 
 
>  <logP> 
2.833 
 
>  <lumo_energy> 
2.038 
 
>  <melting_point> 
-5.31 
 
>  <molecular_refractivity> 
38.46 
 
>  <oscillator_strength_1> 
0.0021 
 
>  <oscillator_strength_2> 
0.015 
 
>  <oscillator_strength_3> 
0.0095 
 
>  <oscillator_strength_4> 
0.0098 
 
>  <open_babel_can_smiles> 
CC[C@@H]1CCC[C@@H]1C 
 
>  <mulliken_charges> 
24 
1   -0.45282 
2   -0.457513 
3   -0.263506 
4   -0.270607 
5   -0.268182 
6   -0.28608 
7   -0.073087 
8   -0.075163 
9   0.149455 
10   0.144825 
11   0.141219 
12   0.139451 
13   0.145168 
14   0.140208 
15   0.131488 
16   0.129545 
17   0.130741 
18   0.132013 
19   0.127546 
20   0.132954 
21   0.136834 
22   0.132425 
23   0.117549 
24   0.115537 
 
>  <lowdin_charges> 
24 
1   -0.454987 
2   -0.446527 
3   -0.278104 
4   -0.283927 
5   -0.285404 
6   -0.286964 
7   -0.129599 
8   -0.136001 
9   0.146915 
10   0.14678 
11   0.151001 
12   0.149191 
13   0.147726 
14   0.147834 
15   0.141853 
16   0.14236 
17   0.144613 
18   0.141074 
19   0.141868 
20   0.13954 
21   0.143112 
22   0.142799 
23   0.136049 
24   0.1388 
 
$$$$ 
 
