PCCDB-ID:  21471 
public computational chemistry database (PCCDB) project, http://pccdb.org 
 
 22 22  0  0  0  0  0  0  0  0999 V2000 
    2.6499   -1.1902    0.2917 C   0  0  0  0  0  0  0  0  0  0  0  0 
    3.7514    2.9819    2.4092 C   0  0  0  0  0  0  0  0  0  0  0  0 
    4.8991    0.9915    3.1330 C   0  0  0  0  0  0  0  0  0  0  0  0 
    3.0231    2.2349    1.4934 C   0  0  0  0  0  0  0  0  0  0  0  0 
    4.1791    0.2318    2.2125 C   0  0  0  0  0  0  0  0  0  0  0  0 
    4.7010    2.3731    3.2482 C   0  0  0  0  0  0  0  0  0  0  0  0 
    3.2311    0.8525    1.3876 C   0  0  0  0  0  0  0  0  0  0  0  0 
    5.4712    3.1720    4.2276 C   0  0  0  0  0  0  0  0  0  0  0  0 
    4.9310    4.3788    4.6443 N   0  0  0  0  0  0  0  0  0  0  0  0 
    6.6306    2.7318    4.5983 N   0  0  0  0  0  0  0  0  0  0  0  0 
    7.1811    3.6092    5.5815 O   0  0  0  0  0  0  0  0  0  0  0  0 
    2.4667    0.2069    0.4605 O   0  0  0  0  0  0  0  0  0  0  0  0 
    1.9576   -1.4892   -0.4975 H   0  0  0  0  0  0  0  0  0  0  0  0 
    2.4126   -1.7430    1.2102 H   0  0  0  0  0  0  0  0  0  0  0  0 
    3.6765   -1.4282   -0.0165 H   0  0  0  0  0  0  0  0  0  0  0  0 
    3.6036    4.0568    2.4557 H   0  0  0  0  0  0  0  0  0  0  0  0 
    5.6275    0.5124    3.7785 H   0  0  0  0  0  0  0  0  0  0  0  0 
    2.2943    2.7023    0.8386 H   0  0  0  0  0  0  0  0  0  0  0  0 
    4.3562   -0.8360    2.1531 H   0  0  0  0  0  0  0  0  0  0  0  0 
    3.9251    4.3849    4.7538 H   0  0  0  0  0  0  0  0  0  0  0  0 
    5.4262    4.7880    5.4275 H   0  0  0  0  0  0  0  0  0  0  0  0 
    8.0369    3.1927    5.7578 H   0  0  0  0  0  0  0  0  0  0  0  0 
  1 12  1  0  0  0  0 
  1 14  1  0  0  0  0 
  2 16  1  0  0  0  0 
  2  6  2  0  0  0  0 
  3  6  1  0  0  0  0 
  3 17  1  0  0  0  0 
  4  2  1  0  0  0  0 
  5  3  2  0  0  0  0 
  6  8  1  0  0  0  0 
  7  4  2  0  0  0  0 
  7  5  1  0  0  0  0 
  8 10  1  0  0  0  0 
  8  9  2  0  0  0  0 
  9 20  1  0  0  0  0 
  9 21  1  0  0  0  0 
 10 11  1  0  0  0  0 
 11 22  1  0  0  0  0 
 12  7  1  0  0  0  0 
 13  1  1  0  0  0  0 
 15  1  1  0  0  0  0 
 18  4  1  0  0  0  0 
 19  5  1  0  0  0  0 
M  RAD  1  10   2 
M  END 
>  <HBA> 
4 
 
>  <HBD> 
2 
 
>  <TPSA> 
67.84 
 
>  <cid> 
21471 
 
>  <dipole> 
1.88 
 
>  <excitation_energy_1> 
4.564 
 
>  <excitation_energy_2> 
4.739 
 
>  <excitation_energy_3> 
4.984 
 
>  <excitation_energy_4> 
5.312 
 
>  <homo_energy> 
-5.399 
 
>  <homo_lumo_gap> 
5.048 
 
>  <logP> 
1.49 
 
>  <lumo_energy> 
-0.351 
 
>  <melting_point> 
139.28 
 
>  <molecular_refractivity> 
45.02 
 
>  <oscillator_strength_1> 
0.04 
 
>  <oscillator_strength_2> 
0.2923 
 
>  <oscillator_strength_3> 
0.007 
 
>  <oscillator_strength_4> 
0.0243 
 
>  <open_babel_can_smiles> 
O[N]C(=[NH2])c1ccc(cc1)OC 
 
>  <mulliken_charges> 
22 
1   -0.216059 
2   -0.192827 
3   -0.173965 
4   -0.17744 
5   -0.200306 
6   0.108774 
7   0.381505 
8   0.446477 
9   -0.773844 
10   -0.297484 
11   -0.543088 
12   -0.505953 
13   0.170886 
14   0.152965 
15   0.154722 
16   0.142499 
17   0.15422 
18   0.139483 
19   0.133855 
20   0.324057 
21   0.355726 
22   0.415798 
 
>  <lowdin_charges> 
22 
1   -0.276829 
2   -0.152416 
3   -0.132872 
4   -0.18295 
5   -0.210953 
6   -0.035122 
7   0.104502 
8   0.064434 
9   -0.482514 
10   -0.136095 
11   -0.410894 
12   -0.196702 
13   0.1644 
14   0.146113 
15   0.145834 
16   0.162695 
17   0.173561 
18   0.168491 
19   0.161653 
20   0.278973 
21   0.29147 
22   0.355222 
 
$$$$ 
 
