PCCDB-ID:  15342 
public computational chemistry database (PCCDB) project, http://pccdb.org 
 
 22 21  0  0  1  0  0  0  0  0999 V2000 
    2.8323    0.3885   -1.5631 C   0  0  0  0  0  0  0  0  0  0  0  0 
    4.8405    4.1921    2.7539 C   0  0  0  0  0  0  0  0  0  0  0  0 
    4.7036    0.9313    4.1720 C   0  0  0  0  0  0  0  0  0  0  0  0 
    3.2668   -0.3477   -0.2840 C   0  0  0  0  0  0  0  0  0  0  0  0 
    5.2131    2.9128    2.7142 C   0  0  0  0  0  0  0  0  0  0  0  0 
    3.2512    0.5390    0.9322 C   0  0  0  0  0  0  0  0  0  0  0  0 
    4.3108    0.8340    1.6893 C   0  0  0  0  0  0  0  0  0  0  0  0 
    4.2945    1.7263    2.9114 C   0  0  1  0  0  0  0  0  0  0  0  0 
    2.8214   -0.2897   -2.4241 H   0  0  0  0  0  0  0  0  0  0  0  0 
    3.5132    1.2167   -1.7881 H   0  0  0  0  0  0  0  0  0  0  0  0 
    1.8244    0.8073   -1.4550 H   0  0  0  0  0  0  0  0  0  0  0  0 
    5.5518    5.0013    2.6107 H   0  0  0  0  0  0  0  0  0  0  0  0 
    3.8059    4.4812    2.9294 H   0  0  0  0  0  0  0  0  0  0  0  0 
    4.6764    1.5707    5.0613 H   0  0  0  0  0  0  0  0  0  0  0  0 
    5.7229    0.5372    4.0733 H   0  0  0  0  0  0  0  0  0  0  0  0 
    4.0303    0.0815    4.3286 H   0  0  0  0  0  0  0  0  0  0  0  0 
    4.2709   -0.7690   -0.4209 H   0  0  0  0  0  0  0  0  0  0  0  0 
    2.5909   -1.2012   -0.1227 H   0  0  0  0  0  0  0  0  0  0  0  0 
    6.2621    2.6682    2.5333 H   0  0  0  0  0  0  0  0  0  0  0  0 
    2.2835    0.9788    1.1864 H   0  0  0  0  0  0  0  0  0  0  0  0 
    5.2818    0.4014    1.4343 H   0  0  0  0  0  0  0  0  0  0  0  0 
    3.2725    2.1021    3.0540 H   0  0  0  0  0  0  0  0  0  0  0  0 
  1 11  1  0  0  0  0 
  1  4  1  0  0  0  0 
  2 13  1  0  0  0  0 
  3 16  1  0  0  0  0 
  3 14  1  0  0  0  0 
  4 18  1  0  0  0  0 
  4  6  1  0  0  0  0 
  5  2  2  0  0  0  0 
  5  8  1  0  0  0  0 
  6 20  1  0  0  0  0 
  6  7  2  0  0  0  0 
  7  8  1  0  0  0  0 
  8 22  1  1  0  0  0 
  8  3  1  0  0  0  0 
  9  1  1  0  0  0  0 
 10  1  1  0  0  0  0 
 12  2  1  0  0  0  0 
 15  3  1  0  0  0  0 
 17  4  1  0  0  0  0 
 19  5  1  0  0  0  0 
 21  7  1  0  0  0  0 
M  END 
>  <HBA> 
0 
 
>  <HBD> 
0 
 
>  <TPSA> 
0.0 
 
>  <cid> 
15342 
 
>  <dipole> 
0.34 
 
>  <excitation_energy_1> 
5.891 
 
>  <excitation_energy_2> 
6.175 
 
>  <excitation_energy_3> 
6.366 
 
>  <excitation_energy_4> 
6.384 
 
>  <homo_energy> 
-6.433 
 
>  <homo_lumo_gap> 
6.773 
 
>  <logP> 
2.775 
 
>  <lumo_energy> 
0.34 
 
>  <melting_point> 
-38.7 
 
>  <molecular_refractivity> 
39.62 
 
>  <oscillator_strength_1> 
0.1696 
 
>  <oscillator_strength_2> 
0.0068 
 
>  <oscillator_strength_3> 
0.1044 
 
>  <oscillator_strength_4> 
0.0013 
 
>  <open_babel_can_smiles> 
C[C@@H](C=C)/C=C/CC 
 
>  <mulliken_charges> 
22 
1   -0.439071 
2   -0.344788 
3   -0.443021 
4   -0.295928 
5   -0.033234 
6   -0.090238 
7   -0.089632 
8   -0.165018 
9   0.14223 
10   0.151574 
11   0.142961 
12   0.137431 
13   0.133882 
14   0.149692 
15   0.140282 
16   0.149189 
17   0.137906 
18   0.140751 
19   0.120119 
20   0.114484 
21   0.112201 
22   0.128228 
 
>  <lowdin_charges> 
22 
1   -0.443132 
2   -0.34457 
3   -0.440903 
4   -0.26804 
5   -0.13856 
6   -0.165932 
7   -0.16519 
8   -0.116212 
9   0.149515 
10   0.152044 
11   0.146588 
12   0.158505 
13   0.15224 
14   0.153196 
15   0.146118 
16   0.15332 
17   0.144672 
18   0.147346 
19   0.146566 
20   0.144196 
21   0.143974 
22   0.14426 
 
$$$$ 
 
