PCCDB-ID:  41772 
public computational chemistry database (PCCDB) project, http://pccdb.org 
 
 27 28  0  0  0  0  0  0  0  0999 V2000 
    5.8983   -3.6358    3.1870 C   0  0  0  0  0  0  0  0  0  0  0  0 
    4.2645   -2.5453    1.4971 C   0  0  0  0  0  0  0  0  0  0  0  0 
    9.2790    2.4723    4.6827 C   0  0  0  0  0  0  0  0  0  0  0  0 
    9.1294    1.0887    4.4439 C   0  0  0  0  0  0  0  0  0  0  0  0 
    8.3205    3.3575    4.2374 C   0  0  0  0  0  0  0  0  0  0  0  0 
    8.0247    0.5979    3.7749 C   0  0  0  0  0  0  0  0  0  0  0  0 
    6.1803    3.7566    3.0345 C   0  0  0  0  0  0  0  0  0  0  0  0 
    5.3802   -2.3988    2.5072 C   0  0  0  0  0  0  0  0  0  0  0  0 
    7.1832    2.8833    3.5427 C   0  0  0  0  0  0  0  0  0  0  0  0 
    7.0227    1.4880    3.3150 C   0  0  0  0  0  0  0  0  0  0  0  0 
    5.8231    1.1378    2.5960 C   0  0  0  0  0  0  0  0  0  0  0  0 
    5.1243    3.3533    2.3690 N   0  0  0  0  0  0  0  0  0  0  0  0 
    5.9223   -1.2759    2.8308 N   0  0  0  0  0  0  0  0  0  0  0  0 
    4.9414    2.0306    2.1588 N   0  0  0  0  0  0  0  0  0  0  0  0 
    5.4673   -0.1473    2.2162 N   0  0  0  0  0  0  0  0  0  0  0  0 
    6.2814   -4.3572    2.4523 H   0  0  0  0  0  0  0  0  0  0  0  0 
    5.0970   -4.1436    3.7411 H   0  0  0  0  0  0  0  0  0  0  0  0 
    6.6997   -3.3827    3.8850 H   0  0  0  0  0  0  0  0  0  0  0  0 
    4.0258   -3.5980    1.3271 H   0  0  0  0  0  0  0  0  0  0  0  0 
    4.5394   -2.1008    0.5310 H   0  0  0  0  0  0  0  0  0  0  0  0 
    3.3424   -2.0496    1.8340 H   0  0  0  0  0  0  0  0  0  0  0  0 
   10.1535    2.8368    5.2149 H   0  0  0  0  0  0  0  0  0  0  0  0 
    9.8937    0.3994    4.7922 H   0  0  0  0  0  0  0  0  0  0  0  0 
    8.4260    4.4260    4.4074 H   0  0  0  0  0  0  0  0  0  0  0  0 
    7.9048   -0.4627    3.6041 H   0  0  0  0  0  0  0  0  0  0  0  0 
    6.2666    4.8315    3.1836 H   0  0  0  0  0  0  0  0  0  0  0  0 
    4.5752   -0.1552    1.7249 H   0  0  0  0  0  0  0  0  0  0  0  0 
  1 17  1  0  0  0  0 
  1 18  1  0  0  0  0 
  2 21  1  0  0  0  0 
  2  8  1  0  0  0  0 
  3 22  1  0  0  0  0 
  4  3  1  0  0  0  0 
  4 23  1  0  0  0  0 
  5 24  1  0  0  0  0 
  5  3  2  0  0  0  0 
  6  4  2  0  0  0  0 
  7 26  1  0  0  0  0 
  7  9  2  0  0  0  0 
  8 13  2  0  0  0  0 
  8  1  1  0  0  0  0 
  9  5  1  0  0  0  0 
 10  9  1  0  0  0  0 
 10  6  1  0  0  0  0 
 11 10  2  0  0  0  0 
 12  7  1  0  0  0  0 
 14 12  2  0  0  0  0 
 14 11  1  0  0  0  0 
 15 11  1  0  0  0  0 
 15 13  1  0  0  0  0 
 16  1  1  0  0  0  0 
 19  2  1  0  0  0  0 
 20  2  1  0  0  0  0 
 25  6  1  0  0  0  0 
 27 15  1  0  0  0  0 
M  END 
>  <HBA> 
4 
 
>  <HBD> 
1 
 
>  <TPSA> 
50.17 
 
>  <cid> 
41772 
 
>  <dipole> 
4.02 
 
>  <excitation_energy_1> 
3.7 
 
>  <excitation_energy_2> 
3.744 
 
>  <excitation_energy_3> 
3.942 
 
>  <excitation_energy_4> 
4.043 
 
>  <homo_energy> 
-5.562 
 
>  <homo_lumo_gap> 
4.226 
 
>  <logP> 
2.51 
 
>  <lumo_energy> 
-1.336 
 
>  <melting_point> 
130.75 
 
>  <molecular_refractivity> 
62.14 
 
>  <oscillator_strength_1> 
0.1772 
 
>  <oscillator_strength_2> 
0.0981 
 
>  <oscillator_strength_3> 
0.0402 
 
>  <oscillator_strength_4> 
0.0062 
 
>  <open_babel_can_smiles> 
CC(=NNc1nncc2c1cccc2)C 
 
>  <mulliken_charges> 
27 
1   -0.507048 
2   -0.553583 
3   -0.123176 
4   -0.137523 
5   -0.195037 
6   -0.170238 
7   -0.012293 
8   0.326493 
9   0.116515 
10   0.116452 
11   0.482694 
12   -0.262652 
13   -0.27079 
14   -0.389673 
15   -0.517687 
16   0.159191 
17   0.16095 
18   0.173128 
19   0.170799 
20   0.180456 
21   0.177656 
22   0.138985 
23   0.137421 
24   0.141344 
25   0.17953 
26   0.144118 
27   0.333971 
 
>  <lowdin_charges> 
27 
1   -0.44471 
2   -0.470947 
3   -0.143341 
4   -0.153653 
5   -0.150069 
6   -0.14573 
7   -0.130006 
8   0.023796 
9   -0.003692 
10   -0.022564 
11   0.091678 
12   -0.09076 
13   -0.110499 
14   -0.164957 
15   -0.187039 
16   0.160479 
17   0.161487 
18   0.168658 
19   0.168226 
20   0.16949 
21   0.168708 
22   0.163088 
23   0.163234 
24   0.161816 
25   0.180751 
26   0.159292 
27   0.277263 
 
$$$$ 
 
