PCCDB-ID:  32158 
public computational chemistry database (PCCDB) project, http://pccdb.org 
 
 34 34  0  0  0  0  0  0  0  0999 V2000 
    3.8017    5.4041    3.4823 C   0  0  0  0  0  0  0  0  0  0  0  0 
    5.6294    6.6792    2.5877 C   0  0  0  0  0  0  0  0  0  0  0  0 
    8.2179   -0.6616   -4.2302 C   0  0  0  0  0  0  0  0  0  0  0  0 
    6.6320   -1.5019    0.0593 C   0  0  0  0  0  0  0  0  0  0  0  0 
    6.0786   -0.2554    0.2965 C   0  0  0  0  0  0  0  0  0  0  0  0 
    7.4894   -1.6820   -1.0355 C   0  0  0  0  0  0  0  0  0  0  0  0 
    5.3381    4.3714    1.9082 C   0  0  0  0  0  0  0  0  0  0  0  0 
    4.3995    3.5214    1.0477 C   0  0  0  0  0  0  0  0  0  0  0  0 
    6.3845    0.8336   -0.5443 C   0  0  0  0  0  0  0  0  0  0  0  0 
    7.8073   -0.6287   -1.8840 C   0  0  0  0  0  0  0  0  0  0  0  0 
    7.2660    0.6563   -1.6410 C   0  0  0  0  0  0  0  0  0  0  0  0 
    5.8265    2.1738   -0.3025 C   0  0  0  0  0  0  0  0  0  0  0  0 
    4.6783    5.6034    2.3341 N   0  0  0  0  0  0  0  0  0  0  0  0 
    7.6221    1.6575   -2.4668 O   0  0  0  0  0  0  0  0  0  0  0  0 
    6.0827    3.1618   -0.9972 O   0  0  0  0  0  0  0  0  0  0  0  0 
    8.7055   -0.8467   -2.8968 O   0  0  0  0  0  0  0  0  0  0  0  0 
    4.9962    2.2365    0.7516 O   0  0  0  0  0  0  0  0  0  0  0  0 
    3.2671    6.3348    3.7001 H   0  0  0  0  0  0  0  0  0  0  0  0 
    4.3495    5.1002    4.3962 H   0  0  0  0  0  0  0  0  0  0  0  0 
    3.0516    4.6360    3.2692 H   0  0  0  0  0  0  0  0  0  0  0  0 
    5.0838    7.5997    2.8226 H   0  0  0  0  0  0  0  0  0  0  0  0 
    6.2314    6.8619    1.6918 H   0  0  0  0  0  0  0  0  0  0  0  0 
    6.3173    6.4682    3.4300 H   0  0  0  0  0  0  0  0  0  0  0  0 
    9.0408   -0.9468   -4.8895 H   0  0  0  0  0  0  0  0  0  0  0  0 
    7.9395    0.3791   -4.4153 H   0  0  0  0  0  0  0  0  0  0  0  0 
    7.3569   -1.3157   -4.4222 H   0  0  0  0  0  0  0  0  0  0  0  0 
    6.3995   -2.3392    0.7100 H   0  0  0  0  0  0  0  0  0  0  0  0 
    5.4079   -0.0942    1.1321 H   0  0  0  0  0  0  0  0  0  0  0  0 
    7.9357   -2.6493   -1.2465 H   0  0  0  0  0  0  0  0  0  0  0  0 
    6.2066    4.6328    1.2969 H   0  0  0  0  0  0  0  0  0  0  0  0 
    5.7058    3.7677    2.7600 H   0  0  0  0  0  0  0  0  0  0  0  0 
    4.1623    4.0405    0.1180 H   0  0  0  0  0  0  0  0  0  0  0  0 
    3.4768    3.2713    1.5744 H   0  0  0  0  0  0  0  0  0  0  0  0 
    7.1549    2.4708   -2.1474 H   0  0  0  0  0  0  0  0  0  0  0  0 
  1 18  1  0  0  0  0 
  1 19  1  0  0  0  0 
  2 21  1  0  0  0  0 
  2 23  1  0  0  0  0 
  3 16  1  0  0  0  0 
  4  5  1  0  0  0  0 
  4 27  1  0  0  0  0 
  5 28  1  0  0  0  0 
  6  4  2  0  0  0  0 
  7 13  1  0  0  0  0 
  7 31  1  0  0  0  0 
  8 33  1  0  0  0  0 
  8  7  1  0  0  0  0 
  9 12  1  0  0  0  0 
  9  5  2  0  0  0  0 
 10 11  2  0  0  0  0 
 10  6  1  0  0  0  0 
 11  9  1  0  0  0  0 
 12 17  1  0  0  0  0 
 13  2  1  0  0  0  0 
 13  1  1  0  0  0  0 
 14 34  1  0  0  0  0 
 14 11  1  0  0  0  0 
 15 12  2  0  0  0  0 
 16 10  1  0  0  0  0 
 17  8  1  0  0  0  0 
 20  1  1  0  0  0  0 
 22  2  1  0  0  0  0 
 24  3  1  0  0  0  0 
 25  3  1  0  0  0  0 
 26  3  1  0  0  0  0 
 29  6  1  0  0  0  0 
 30  7  1  0  0  0  0 
 32  8  1  0  0  0  0 
M  END 
>  <HBA> 
5 
 
>  <HBD> 
1 
 
>  <TPSA> 
59.0 
 
>  <cid> 
32158 
 
>  <dipole> 
2.64 
 
>  <excitation_energy_1> 
4.008 
 
>  <excitation_energy_2> 
4.053 
 
>  <excitation_energy_3> 
4.908 
 
>  <excitation_energy_4> 
5.1 
 
>  <homo_energy> 
-5.919 
 
>  <homo_lumo_gap> 
4.623 
 
>  <logP> 
1.119 
 
>  <lumo_energy> 
-1.295 
 
>  <melting_point> 
76.99 
 
>  <molecular_refractivity> 
63.55 
 
>  <oscillator_strength_1> 
0.084 
 
>  <oscillator_strength_2> 
0.002 
 
>  <oscillator_strength_3> 
0.1235 
 
>  <oscillator_strength_4> 
0.0506 
 
>  <open_babel_can_smiles> 
COc1cccc(c1O)C(=O)OCCN(C)C 
 
>  <mulliken_charges> 
34 
1   -0.303431 
2   -0.298813 
3   -0.216255 
4   -0.147455 
5   -0.171292 
6   -0.16669 
7   -0.144159 
8   -0.045841 
9   0.00526 
10   0.328816 
11   0.267494 
12   0.632409 
13   -0.372082 
14   -0.653819 
15   -0.554298 
16   -0.518932 
17   -0.479707 
18   0.154418 
19   0.122994 
20   0.148725 
21   0.15057 
22   0.157563 
23   0.122012 
24   0.159407 
25   0.176712 
26   0.13769 
27   0.133464 
28   0.153169 
29   0.143546 
30   0.165447 
31   0.126426 
32   0.182876 
33   0.156814 
34   0.446962 
 
>  <lowdin_charges> 
34 
1   -0.35894 
2   -0.356209 
3   -0.276143 
4   -0.17832 
5   -0.141328 
6   -0.150632 
7   -0.214285 
8   -0.133724 
9   -0.102211 
10   0.064558 
11   0.104097 
12   0.213101 
13   -0.182772 
14   -0.367349 
15   -0.312636 
16   -0.221196 
17   -0.176473 
18   0.153327 
19   0.123108 
20   0.148976 
21   0.151087 
22   0.154433 
23   0.123173 
24   0.157796 
25   0.155767 
26   0.138742 
27   0.162097 
28   0.172133 
29   0.169765 
30   0.160647 
31   0.127654 
32   0.166476 
33   0.154568 
34   0.370712 
 
$$$$ 
 
