PCCDB-ID:  61897 
public computational chemistry database (PCCDB) project, http://pccdb.org 
 
 23 23  0  0  1  0  0  0  0  0999 V2000 
    1.0454    0.4063   -0.2933 C   0  0  0  0  0  0  0  0  0  0  0  0 
    7.0824    2.2433   -2.6608 C   0  0  0  0  0  0  0  0  0  0  0  0 
    2.5075    0.7225   -0.6226 C   0  0  0  0  0  0  0  0  0  0  0  0 
    6.9572   -0.1570   -1.6062 C   0  0  0  0  0  0  0  0  0  0  0  0 
    5.8313   -0.9480   -1.2025 C   0  0  0  0  0  0  0  0  0  0  0  0 
    2.6380   -0.7297   -2.6803 C   0  0  0  0  0  0  0  0  0  0  0  0 
    6.4611    1.0159   -2.0926 C   0  0  0  0  0  0  0  0  0  0  0  0 
    3.2511   -0.4550   -1.3073 C   0  0  1  0  0  0  0  0  0  0  0  0 
    4.7188   -0.2033   -1.4614 C   0  0  0  0  0  0  0  0  0  0  0  0 
    1.9803   -1.7074   -2.9556 O   0  0  0  0  0  0  0  0  0  0  0  0 
    5.0910    1.0002   -2.0120 O   0  0  0  0  0  0  0  0  0  0  0  0 
    0.5664    1.2619    0.1948 H   0  0  0  0  0  0  0  0  0  0  0  0 
    0.9692   -0.4523    0.3842 H   0  0  0  0  0  0  0  0  0  0  0  0 
    0.4667    0.1661   -1.1921 H   0  0  0  0  0  0  0  0  0  0  0  0 
    8.1706    2.1373   -2.6704 H   0  0  0  0  0  0  0  0  0  0  0  0 
    6.8306    3.1338   -2.0713 H   0  0  0  0  0  0  0  0  0  0  0  0 
    6.7476    2.4260   -3.6896 H   0  0  0  0  0  0  0  0  0  0  0  0 
    3.0535    0.9761    0.2941 H   0  0  0  0  0  0  0  0  0  0  0  0 
    2.5700    1.6062   -1.2700 H   0  0  0  0  0  0  0  0  0  0  0  0 
    8.0023   -0.4271   -1.5412 H   0  0  0  0  0  0  0  0  0  0  0  0 
    5.8473   -1.9405   -0.7735 H   0  0  0  0  0  0  0  0  0  0  0  0 
    2.8394    0.0614   -3.4375 H   0  0  0  0  0  0  0  0  0  0  0  0 
    3.1205   -1.3674   -0.7147 H   0  0  0  0  0  0  0  0  0  0  0  0 
  1 12  1  0  0  0  0 
  1 13  1  0  0  0  0 
  2  7  1  0  0  0  0 
  2 16  1  0  0  0  0 
  3  1  1  0  0  0  0 
  3 18  1  0  0  0  0 
  4 20  1  0  0  0  0 
  4  5  1  0  0  0  0 
  5 21  1  0  0  0  0 
  6  8  1  0  0  0  0 
  7 11  1  0  0  0  0 
  7  4  2  0  0  0  0 
  8 23  1  1  0  0  0 
  8  3  1  0  0  0  0 
  9  8  1  0  0  0  0 
  9  5  2  0  0  0  0 
 10  6  2  0  0  0  0 
 11  9  1  0  0  0  0 
 14  1  1  0  0  0  0 
 15  2  1  0  0  0  0 
 17  2  1  0  0  0  0 
 19  3  1  0  0  0  0 
 22  6  1  0  0  0  0 
M  END 
>  <HBA> 
2 
 
>  <HBD> 
0 
 
>  <TPSA> 
30.21 
 
>  <cid> 
61897 
 
>  <dipole> 
3.01 
 
>  <excitation_energy_1> 
3.917 
 
>  <excitation_energy_2> 
4.641 
 
>  <excitation_energy_3> 
5.298 
 
>  <excitation_energy_4> 
5.709 
 
>  <homo_energy> 
-5.777 
 
>  <homo_lumo_gap> 
5.048 
 
>  <logP> 
2.28 
 
>  <lumo_energy> 
-0.729 
 
>  <melting_point> 
40.95 
 
>  <molecular_refractivity> 
43.26 
 
>  <oscillator_strength_1> 
0.0367 
 
>  <oscillator_strength_2> 
0.0433 
 
>  <oscillator_strength_3> 
0.0019 
 
>  <oscillator_strength_4> 
0.0408 
 
>  <open_babel_can_smiles> 
CC[C@H](c1ccc(o1)C)C=O 
 
>  <mulliken_charges> 
23 
1   -0.451139 
2   -0.530401 
3   -0.270081 
4   -0.215847 
5   -0.207739 
6   0.261408 
7   0.355732 
8   -0.236354 
9   0.333501 
10   -0.387199 
11   -0.48165 
12   0.149616 
13   0.151175 
14   0.159974 
15   0.167509 
16   0.17069 
17   0.171269 
18   0.152565 
19   0.154045 
20   0.136419 
21   0.141934 
22   0.113462 
23   0.161112 
 
>  <lowdin_charges> 
23 
1   -0.449322 
2   -0.438777 
3   -0.269711 
4   -0.217797 
5   -0.210265 
6   0.054023 
7   0.073549 
8   -0.159432 
9   0.060443 
10   -0.214449 
11   -0.121717 
12   0.155527 
13   0.152358 
14   0.156036 
15   0.167454 
16   0.166752 
17   0.165681 
18   0.154299 
19   0.151236 
20   0.165801 
21   0.168529 
22   0.122318 
23   0.167464 
 
$$$$ 
 
