PCCDB-ID:  8403 
public computational chemistry database (PCCDB) project, http://pccdb.org 
 
 36 37  0  0  0  0  0  0  0  0999 V2000 
    1.3019   -1.6211   -1.3666 C   0  0  0  0  0  0  0  0  0  0  0  0 
   -2.8245   -0.8494    4.9459 C   0  0  0  0  0  0  0  0  0  0  0  0 
    0.3357   -2.6570   -0.7744 C   0  0  0  0  0  0  0  0  0  0  0  0 
    1.2326   -0.2949   -0.5953 C   0  0  0  0  0  0  0  0  0  0  0  0 
   -1.3542   -0.4447    4.7655 C   0  0  0  0  0  0  0  0  0  0  0  0 
   -3.4390   -1.3092    3.6158 C   0  0  0  0  0  0  0  0  0  0  0  0 
   -1.1038   -2.1196   -0.6978 C   0  0  0  0  0  0  0  0  0  0  0  0 
   -0.1981    0.2623   -0.5809 C   0  0  0  0  0  0  0  0  0  0  0  0 
   -1.1821    0.6165    3.6648 C   0  0  0  0  0  0  0  0  0  0  0  0 
   -3.3190   -0.2142    2.5458 C   0  0  0  0  0  0  0  0  0  0  0  0 
   -1.2298   -0.7469    0.0004 C   0  0  0  0  0  0  0  0  0  0  0  0 
   -1.8501    0.2480    2.3215 C   0  0  0  0  0  0  0  0  0  0  0  0 
   -1.0877   -0.8149    1.5243 C   0  0  0  0  0  0  0  0  0  0  0  0 
   -0.4057   -1.6675    2.0724 O   0  0  0  0  0  0  0  0  0  0  0  0 
    1.0462   -1.4365   -2.4216 H   0  0  0  0  0  0  0  0  0  0  0  0 
    2.3270   -2.0124   -1.3580 H   0  0  0  0  0  0  0  0  0  0  0  0 
   -3.4003    0.0069    5.3300 H   0  0  0  0  0  0  0  0  0  0  0  0 
   -2.9078   -1.6441    5.6979 H   0  0  0  0  0  0  0  0  0  0  0  0 
    0.6659   -2.9283    0.2330 H   0  0  0  0  0  0  0  0  0  0  0  0 
    0.3479   -3.5734   -1.3789 H   0  0  0  0  0  0  0  0  0  0  0  0 
    1.9068    0.4457   -1.0443 H   0  0  0  0  0  0  0  0  0  0  0  0 
    1.5790   -0.4544    0.4346 H   0  0  0  0  0  0  0  0  0  0  0  0 
   -0.7640   -1.3275    4.5016 H   0  0  0  0  0  0  0  0  0  0  0  0 
   -0.9517   -0.0549    5.7096 H   0  0  0  0  0  0  0  0  0  0  0  0 
   -4.4962   -1.5712    3.7515 H   0  0  0  0  0  0  0  0  0  0  0  0 
   -2.9284   -2.2195    3.2743 H   0  0  0  0  0  0  0  0  0  0  0  0 
   -1.7482   -2.8499   -0.1934 H   0  0  0  0  0  0  0  0  0  0  0  0 
   -1.4978   -2.0049   -1.7183 H   0  0  0  0  0  0  0  0  0  0  0  0 
   -0.5031    0.4935   -1.6114 H   0  0  0  0  0  0  0  0  0  0  0  0 
   -0.2372    1.2102   -0.0283 H   0  0  0  0  0  0  0  0  0  0  0  0 
   -0.1159    0.8166    3.5035 H   0  0  0  0  0  0  0  0  0  0  0  0 
   -1.6312    1.5609    4.0057 H   0  0  0  0  0  0  0  0  0  0  0  0 
   -3.8984    0.6636    2.8653 H   0  0  0  0  0  0  0  0  0  0  0  0 
   -3.7633   -0.5487    1.5992 H   0  0  0  0  0  0  0  0  0  0  0  0 
   -2.2293   -0.3390   -0.2061 H   0  0  0  0  0  0  0  0  0  0  0  0 
   -1.8900    1.1477    1.6914 H   0  0  0  0  0  0  0  0  0  0  0  0 
  1 16  1  0  0  0  0 
  1  3  1  0  0  0  0 
  1  4  1  0  0  0  0 
  2 17  1  0  0  0  0 
  2 18  1  0  0  0  0 
  3  7  1  0  0  0  0 
  3 19  1  0  0  0  0 
  4  8  1  0  0  0  0 
  4 22  1  0  0  0  0 
  5  2  1  0  0  0  0 
  5 24  1  0  0  0  0 
  6 25  1  0  0  0  0 
  6  2  1  0  0  0  0 
  7 27  1  0  0  0  0 
  7 11  1  0  0  0  0 
  8 30  1  0  0  0  0 
  8 11  1  0  0  0  0 
  9 32  1  0  0  0  0 
  9  5  1  0  0  0  0 
 10 33  1  0  0  0  0 
 10  6  1  0  0  0  0 
 11 13  1  0  0  0  0 
 12 10  1  0  0  0  0 
 12  9  1  0  0  0  0 
 13 14  2  0  0  0  0 
 13 12  1  0  0  0  0 
 15  1  1  0  0  0  0 
 20  3  1  0  0  0  0 
 21  4  1  0  0  0  0 
 23  5  1  0  0  0  0 
 26  6  1  0  0  0  0 
 28  7  1  0  0  0  0 
 29  8  1  0  0  0  0 
 31  9  1  0  0  0  0 
 34 10  1  0  0  0  0 
 35 11  1  0  0  0  0 
 36 12  1  0  0  0  0 
M  END 
>  <HBA> 
1 
 
>  <HBD> 
0 
 
>  <TPSA> 
17.07 
 
>  <cid> 
8403 
 
>  <dipole> 
2.2 
 
>  <excitation_energy_1> 
4.089 
 
>  <excitation_energy_2> 
5.581 
 
>  <excitation_energy_3> 
6.096 
 
>  <excitation_energy_4> 
6.177 
 
>  <homo_energy> 
-6.251 
 
>  <homo_lumo_gap> 
5.91 
 
>  <logP> 
3.716 
 
>  <lumo_energy> 
-0.34 
 
>  <melting_point> 
35.34 
 
>  <molecular_refractivity> 
60.58 
 
>  <oscillator_strength_1> 
0.0005 
 
>  <oscillator_strength_2> 
0.0021 
 
>  <oscillator_strength_3> 
0.0063 
 
>  <oscillator_strength_4> 
0.0016 
 
>  <open_babel_can_smiles> 
O=C(C1CCCCC1)C1CCCCC1 
 
>  <mulliken_charges> 
36 
1   -0.256326 
2   -0.256608 
3   -0.261115 
4   -0.259676 
5   -0.261024 
6   -0.259694 
7   -0.260471 
8   -0.277786 
9   -0.260875 
10   -0.2782 
11   -0.1701 
12   -0.169958 
13   0.457557 
14   -0.465802 
15   0.120903 
16   0.131128 
17   0.121037 
18   0.131194 
19   0.167153 
20   0.123684 
21   0.130123 
22   0.147611 
23   0.166961 
24   0.123746 
25   0.130202 
26   0.147632 
27   0.137081 
28   0.125327 
29   0.138436 
30   0.136152 
31   0.137329 
32   0.125426 
33   0.138567 
34   0.13628 
35   0.132009 
36   0.132096 
 
>  <lowdin_charges> 
36 
1   -0.274642 
2   -0.278763 
3   -0.283085 
4   -0.28138 
5   -0.284422 
6   -0.280008 
7   -0.273322 
8   -0.271772 
9   -0.271172 
10   -0.273604 
11   -0.16123 
12   -0.162469 
13   0.164511 
14   -0.24521 
15   0.13172 
16   0.143217 
17   0.134062 
18   0.144801 
19   0.156472 
20   0.140841 
21   0.14514 
22   0.146181 
23   0.157486 
24   0.140944 
25   0.142541 
26   0.147533 
27   0.149137 
28   0.138579 
29   0.143595 
30   0.143006 
31   0.146426 
32   0.139521 
33   0.145224 
34   0.143268 
35   0.147896 
36   0.148978 
 
$$$$ 
 
