PCCDB-ID:  69412 
public computational chemistry database (PCCDB) project, http://pccdb.org 
 
 21 20  0  0  0  0  0  0  0  0999 V2000 
    0.3570   -1.2252   -0.2084 C   0  0  0  0  0  0  0  0  0  0  0  0 
    7.4182   -2.0318   -2.4680 C   0  0  0  0  0  0  0  0  0  0  0  0 
    1.7715   -0.6411   -0.2773 C   0  0  0  0  0  0  0  0  0  0  0  0 
    2.7653   -1.5504   -1.0124 C   0  0  0  0  0  0  0  0  0  0  0  0 
    4.1838   -0.9712   -1.0734 C   0  0  0  0  0  0  0  0  0  0  0  0 
    5.1640   -1.8766   -1.8087 C   0  0  0  0  0  0  0  0  0  0  0  0 
    6.4389   -1.2595   -1.8112 O   0  0  0  0  0  0  0  0  0  0  0  0 
   -0.3308   -0.5476    0.3102 H   0  0  0  0  0  0  0  0  0  0  0  0 
    0.3486   -2.1824    0.3277 H   0  0  0  0  0  0  0  0  0  0  0  0 
   -0.0474   -1.4056   -1.2121 H   0  0  0  0  0  0  0  0  0  0  0  0 
    8.3573   -1.4737   -2.4210 H   0  0  0  0  0  0  0  0  0  0  0  0 
    7.1606   -2.2079   -3.5258 H   0  0  0  0  0  0  0  0  0  0  0  0 
    7.5611   -3.0119   -1.9831 H   0  0  0  0  0  0  0  0  0  0  0  0 
    2.1404   -0.4518    0.7405 H   0  0  0  0  0  0  0  0  0  0  0  0 
    1.7404    0.3375   -0.7766 H   0  0  0  0  0  0  0  0  0  0  0  0 
    2.3981   -1.7339   -2.0332 H   0  0  0  0  0  0  0  0  0  0  0  0 
    2.7898   -2.5324   -0.5165 H   0  0  0  0  0  0  0  0  0  0  0  0 
    4.5652   -0.7987   -0.0583 H   0  0  0  0  0  0  0  0  0  0  0  0 
    4.1714    0.0062   -1.5734 H   0  0  0  0  0  0  0  0  0  0  0  0 
    4.8235   -2.0530   -2.8451 H   0  0  0  0  0  0  0  0  0  0  0  0 
    5.2195   -2.8648   -1.3173 H   0  0  0  0  0  0  0  0  0  0  0  0 
  1  8  1  0  0  0  0 
  1  9  1  0  0  0  0 
  2 11  1  0  0  0  0 
  2 13  1  0  0  0  0 
  2  7  1  0  0  0  0 
  3  1  1  0  0  0  0 
  3 14  1  0  0  0  0 
  4 17  1  0  0  0  0 
  4  3  1  0  0  0  0 
  5  4  1  0  0  0  0 
  5 18  1  0  0  0  0 
  6 21  1  0  0  0  0 
  6  5  1  0  0  0  0 
  7  6  1  0  0  0  0 
 10  1  1  0  0  0  0 
 12  2  1  0  0  0  0 
 15  3  1  0  0  0  0 
 16  4  1  0  0  0  0 
 19  5  1  0  0  0  0 
 20  6  1  0  0  0  0 
M  END 
>  <HBA> 
1 
 
>  <HBD> 
0 
 
>  <TPSA> 
9.23 
 
>  <cid> 
69412 
 
>  <dipole> 
1.07 
 
>  <excitation_energy_1> 
6.527 
 
>  <excitation_energy_2> 
7.029 
 
>  <excitation_energy_3> 
7.041 
 
>  <excitation_energy_4> 
7.202 
 
>  <homo_energy> 
-6.778 
 
>  <homo_lumo_gap> 
9.252 
 
>  <logP> 
1.823 
 
>  <lumo_energy> 
2.474 
 
>  <melting_point> 
-35.51 
 
>  <molecular_refractivity> 
32.04 
 
>  <oscillator_strength_1> 
0.0277 
 
>  <oscillator_strength_2> 
0.0056 
 
>  <oscillator_strength_3> 
0.0013 
 
>  <oscillator_strength_4> 
0.0189 
 
>  <open_babel_can_smiles> 
CCCCCOC 
 
>  <mulliken_charges> 
21 
1   -0.442031 
2   -0.189423 
3   -0.24539 
4   -0.255413 
5   -0.270147 
6   -0.00471 
7   -0.462992 
8   0.142715 
9   0.14135 
10   0.141262 
11   0.156223 
12   0.126832 
13   0.126963 
14   0.132624 
15   0.132573 
16   0.128375 
17   0.128344 
18   0.14342 
19   0.143378 
20   0.113082 
21   0.112964 
 
>  <lowdin_charges> 
21 
1   -0.445201 
2   -0.277415 
3   -0.269495 
4   -0.273284 
5   -0.279068 
6   -0.126575 
7   -0.272077 
8   0.151115 
9   0.145996 
10   0.145658 
11   0.153789 
12   0.127898 
13   0.129094 
14   0.139353 
15   0.139603 
16   0.136984 
17   0.137257 
18   0.14687 
19   0.147153 
20   0.121088 
21   0.121256 
 
$$$$ 
 
