PCCDB-ID:  37167 
public computational chemistry database (PCCDB) project, http://pccdb.org 
 
 26 25  0  0  0  0  0  0  0  0999 V2000 
    1.8895   -2.7996   -1.2070 C   0  0  0  0  0  0  0  0  0  0  0  0 
    5.0031   -2.9955    7.7721 C   0  0  0  0  0  0  0  0  0  0  0  0 
    3.1082   -1.9029   -1.0143 C   0  0  0  0  0  0  0  0  0  0  0  0 
    5.0137   -2.2266    6.4549 C   0  0  0  0  0  0  0  0  0  0  0  0 
    4.1594   -1.7870    2.0205 C   0  0  0  0  0  0  0  0  0  0  0  0 
    3.9511   -2.3618    3.4296 C   0  0  0  0  0  0  0  0  0  0  0  0 
    2.9216   -0.9677    0.1175 N   0  0  0  0  0  0  0  0  0  0  0  0 
    5.1889   -3.1757    5.3345 N   0  0  0  0  0  0  0  0  0  0  0  0 
    2.9935   -1.6250    1.3602 N   0  0  0  0  0  0  0  0  0  0  0  0 
    5.1162   -2.5276    4.0884 N   0  0  0  0  0  0  0  0  0  0  0  0 
    5.2705   -1.4958    1.5790 O   0  0  0  0  0  0  0  0  0  0  0  0 
    2.8392   -2.6500    3.8723 O   0  0  0  0  0  0  0  0  0  0  0  0 
    2.0267   -3.4464   -2.0804 H   0  0  0  0  0  0  0  0  0  0  0  0 
    0.9866   -2.1981   -1.3565 H   0  0  0  0  0  0  0  0  0  0  0  0 
    1.7324   -3.4463   -0.3365 H   0  0  0  0  0  0  0  0  0  0  0  0 
    4.9202   -2.3036    8.6165 H   0  0  0  0  0  0  0  0  0  0  0  0 
    5.9212   -3.5803    7.8889 H   0  0  0  0  0  0  0  0  0  0  0  0 
    4.1502   -3.6837    7.8228 H   0  0  0  0  0  0  0  0  0  0  0  0 
    3.2497   -1.2677   -1.8967 H   0  0  0  0  0  0  0  0  0  0  0  0 
    4.0184   -2.5078   -0.8904 H   0  0  0  0  0  0  0  0  0  0  0  0 
    5.8598   -1.5308    6.4274 H   0  0  0  0  0  0  0  0  0  0  0  0 
    4.0928   -1.6354    6.3438 H   0  0  0  0  0  0  0  0  0  0  0  0 
    3.6996   -0.3067    0.1168 H   0  0  0  0  0  0  0  0  0  0  0  0 
    4.4035   -3.8295    5.3465 H   0  0  0  0  0  0  0  0  0  0  0  0 
    2.1300   -1.7689    1.8695 H   0  0  0  0  0  0  0  0  0  0  0  0 
    5.9823   -2.3745    3.5857 H   0  0  0  0  0  0  0  0  0  0  0  0 
  1  3  1  0  0  0  0 
  1 15  1  0  0  0  0 
  2 18  1  0  0  0  0 
  2 17  1  0  0  0  0 
  2 16  1  0  0  0  0 
  3 20  1  0  0  0  0 
  3  7  1  0  0  0  0 
  4  2  1  0  0  0  0 
  5  6  1  0  0  0  0 
  6 12  2  0  0  0  0 
  6 10  1  0  0  0  0 
  7  9  1  0  0  0  0 
  8 24  1  0  0  0  0 
  8  4  1  0  0  0  0 
  9 25  1  0  0  0  0 
  9  5  1  0  0  0  0 
 10  8  1  0  0  0  0 
 11  5  2  0  0  0  0 
 13  1  1  0  0  0  0 
 14  1  1  0  0  0  0 
 19  3  1  0  0  0  0 
 21  4  1  0  0  0  0 
 22  4  1  0  0  0  0 
 23  7  1  0  0  0  0 
 26 10  1  0  0  0  0 
M  END 
>  <HBA> 
6 
 
>  <HBD> 
4 
 
>  <TPSA> 
82.26 
 
>  <cid> 
37167 
 
>  <dipole> 
0.15 
 
>  <excitation_energy_1> 
4.099 
 
>  <excitation_energy_2> 
4.758 
 
>  <excitation_energy_3> 
4.876 
 
>  <excitation_energy_4> 
5.838 
 
>  <homo_energy> 
-6.427 
 
>  <homo_lumo_gap> 
5.35 
 
>  <logP> 
-0.169 
 
>  <lumo_energy> 
-1.078 
 
>  <melting_point> 
124.94 
 
>  <molecular_refractivity> 
42.56 
 
>  <oscillator_strength_1> 
0.0157 
 
>  <oscillator_strength_2> 
0.0006 
 
>  <oscillator_strength_3> 
0.1264 
 
>  <oscillator_strength_4> 
0.0 
 
>  <open_babel_can_smiles> 
CCNNC(=O)C(=O)NNCC 
 
>  <mulliken_charges> 
26 
1   -0.44387 
2   -0.461154 
3   -0.120351 
4   -0.111066 
5   0.55812 
6   0.557271 
7   -0.414666 
8   -0.417182 
9   -0.481709 
10   -0.475734 
11   -0.545626 
12   -0.547627 
13   0.149036 
14   0.156706 
15   0.153469 
16   0.154801 
17   0.163337 
18   0.150427 
19   0.145536 
20   0.150378 
21   0.149883 
22   0.149351 
23   0.327092 
24   0.323467 
25   0.365487 
26   0.364623 
 
>  <lowdin_charges> 
26 
1   -0.452757 
2   -0.450383 
3   -0.204125 
4   -0.203745 
5   0.115602 
6   0.11506 
7   -0.276873 
8   -0.278254 
9   -0.189481 
10   -0.186892 
11   -0.319639 
12   -0.321498 
13   0.156138 
14   0.15555 
15   0.15264 
16   0.15992 
17   0.158601 
18   0.151841 
19   0.149986 
20   0.139703 
21   0.147022 
22   0.138872 
23   0.268347 
24   0.265642 
25   0.30437 
26   0.304352 
 
$$$$ 
 
