PCCDB-ID:  68148 
public computational chemistry database (PCCDB) project, http://pccdb.org 
 
 20 20  0  0  0  0  0  0  0  0999 V2000 
    1.6081   -1.8597    0.4177 C   0  0  0  0  0  0  0  0  0  0  0  0 
    2.4702   -0.8425    0.4480 C   0  0  0  0  0  0  0  0  0  0  0  0 
    3.1341   -0.2348   -0.7624 C   0  0  0  0  0  0  0  0  0  0  0  0 
    5.3325   -1.4766   -0.4581 C   0  0  0  0  0  0  0  0  0  0  0  0 
    5.4218    0.8772   -0.9104 C   0  0  0  0  0  0  0  0  0  0  0  0 
    6.7251   -1.5276   -0.4234 C   0  0  0  0  0  0  0  0  0  0  0  0 
    6.8140    0.8448   -0.8788 C   0  0  0  0  0  0  0  0  0  0  0  0 
    4.6542   -0.2766   -0.7048 C   0  0  0  0  0  0  0  0  0  0  0  0 
    7.4719   -0.3638   -0.6348 C   0  0  0  0  0  0  0  0  0  0  0  0 
    8.8410   -0.3472   -0.6110 O   0  0  0  0  0  0  0  0  0  0  0  0 
    1.1580   -2.2562    1.3239 H   0  0  0  0  0  0  0  0  0  0  0  0 
    1.3139   -2.3318   -0.5179 H   0  0  0  0  0  0  0  0  0  0  0  0 
    2.7447   -0.4013    1.4070 H   0  0  0  0  0  0  0  0  0  0  0  0 
    2.8180    0.8133   -0.8617 H   0  0  0  0  0  0  0  0  0  0  0  0 
    2.7738   -0.7512   -1.6632 H   0  0  0  0  0  0  0  0  0  0  0  0 
    4.7628   -2.3857   -0.2825 H   0  0  0  0  0  0  0  0  0  0  0  0 
    4.9209    1.8242   -1.1003 H   0  0  0  0  0  0  0  0  0  0  0  0 
    7.2318   -2.4720   -0.2304 H   0  0  0  0  0  0  0  0  0  0  0  0 
    7.4033    1.7425   -1.0381 H   0  0  0  0  0  0  0  0  0  0  0  0 
    9.1616   -1.2429   -0.4236 H   0  0  0  0  0  0  0  0  0  0  0  0 
  1  2  2  0  0  0  0 
  1 11  1  0  0  0  0 
  2 13  1  0  0  0  0 
  3  8  1  0  0  0  0 
  3  2  1  0  0  0  0 
  4  6  1  0  0  0  0 
  4 16  1  0  0  0  0 
  5  7  2  0  0  0  0 
  5  8  1  0  0  0  0 
  6 18  1  0  0  0  0 
  7  9  1  0  0  0  0 
  8  4  2  0  0  0  0 
  9 10  1  0  0  0  0 
  9  6  2  0  0  0  0 
 10 20  1  0  0  0  0 
 12  1  1  0  0  0  0 
 14  3  1  0  0  0  0 
 15  3  1  0  0  0  0 
 17  5  1  0  0  0  0 
 19  7  1  0  0  0  0 
M  END 
>  <HBA> 
1 
 
>  <HBD> 
1 
 
>  <TPSA> 
20.23 
 
>  <cid> 
68148 
 
>  <dipole> 
1.2 
 
>  <excitation_energy_1> 
4.875 
 
>  <excitation_energy_2> 
5.124 
 
>  <excitation_energy_3> 
5.387 
 
>  <excitation_energy_4> 
5.663 
 
>  <homo_energy> 
-5.799 
 
>  <homo_lumo_gap> 
5.774 
 
>  <logP> 
2.121 
 
>  <lumo_energy> 
-0.024 
 
>  <melting_point> 
26.2 
 
>  <molecular_refractivity> 
42.57 
 
>  <oscillator_strength_1> 
0.0436 
 
>  <oscillator_strength_2> 
0.0006 
 
>  <oscillator_strength_3> 
0.0933 
 
>  <oscillator_strength_4> 
0.0029 
 
>  <open_babel_can_smiles> 
C=CCc1ccc(cc1)O 
 
>  <mulliken_charges> 
20 
1   -0.348067 
2   -0.030126 
3   -0.390747 
4   -0.179795 
5   -0.198763 
6   -0.193504 
7   -0.156184 
8   0.165567 
9   0.348349 
10   -0.644344 
11   0.139719 
12   0.135098 
13   0.131259 
14   0.150151 
15   0.152822 
16   0.133515 
17   0.124044 
18   0.116889 
19   0.137922 
20   0.406196 
 
>  <lowdin_charges> 
20 
1   -0.348095 
2   -0.141286 
3   -0.267547 
4   -0.151384 
5   -0.156295 
6   -0.213092 
7   -0.18712 
8   -0.024641 
9   0.102379 
10   -0.381817 
11   0.159281 
12   0.153879 
13   0.153013 
14   0.154398 
15   0.155834 
16   0.161709 
17   0.15541 
18   0.152379 
19   0.167182 
20   0.355811 
 
$$$$ 
 
