PCCDB-ID:  22276 
public computational chemistry database (PCCDB) project, http://pccdb.org 
 
 26 26  0  0  1  0  0  0  0  0999 V2000 
    0.9202    0.3175    0.2908 C   0  0  0  0  0  0  0  0  0  0  0  0 
    3.0453   -3.3271    1.3087 C   0  0  0  0  0  0  0  0  0  0  0  0 
    2.5505    1.3319   -4.4768 C   0  0  0  0  0  0  0  0  0  0  0  0 
    1.5985    0.3819   -4.1006 C   0  0  0  0  0  0  0  0  0  0  0  0 
    3.4124    1.8564   -3.5136 C   0  0  0  0  0  0  0  0  0  0  0  0 
    1.5112   -0.0376   -2.7733 C   0  0  0  0  0  0  0  0  0  0  0  0 
    3.3218    1.4306   -2.1869 C   0  0  0  0  0  0  0  0  0  0  0  0 
    2.6584   -1.4781   -0.2266 C   0  0  0  0  0  0  0  0  0  0  0  0 
    2.2891    0.0162   -0.3451 C   0  0  1  0  0  0  0  0  0  0  0  0 
    2.3724    0.4790   -1.7929 C   0  0  0  0  0  0  0  0  0  0  0  0 
    2.7251   -1.9111    1.1669 N   0  0  0  0  0  0  0  0  0  0  0  0 
    0.9040   -0.0176    1.3313 H   0  0  0  0  0  0  0  0  0  0  0  0 
    0.1158   -0.2059   -0.2398 H   0  0  0  0  0  0  0  0  0  0  0  0 
    0.7007    1.3902    0.2550 H   0  0  0  0  0  0  0  0  0  0  0  0 
    3.1518   -3.5739    2.3703 H   0  0  0  0  0  0  0  0  0  0  0  0 
    3.9687   -3.6408    0.7855 H   0  0  0  0  0  0  0  0  0  0  0  0 
    2.2200   -3.9278    0.9080 H   0  0  0  0  0  0  0  0  0  0  0  0 
    2.6180    1.6600   -5.5107 H   0  0  0  0  0  0  0  0  0  0  0  0 
    0.9210   -0.0331   -4.8426 H   0  0  0  0  0  0  0  0  0  0  0  0 
    4.1567    2.5981   -3.7926 H   0  0  0  0  0  0  0  0  0  0  0  0 
    0.7603   -0.7741   -2.4974 H   0  0  0  0  0  0  0  0  0  0  0  0 
    3.9990    1.8453   -1.4429 H   0  0  0  0  0  0  0  0  0  0  0  0 
    3.6015   -1.6607   -0.7775 H   0  0  0  0  0  0  0  0  0  0  0  0 
    1.8896   -2.0843   -0.7255 H   0  0  0  0  0  0  0  0  0  0  0  0 
    3.0502    0.5790    0.2171 H   0  0  0  0  0  0  0  0  0  0  0  0 
    3.4377   -1.3616    1.6461 H   0  0  0  0  0  0  0  0  0  0  0  0 
  1 12  1  0  0  0  0 
  2 15  1  0  0  0  0 
  3  4  2  0  0  0  0 
  3  5  1  0  0  0  0 
  4  6  1  0  0  0  0 
  5  7  2  0  0  0  0 
  6 21  1  0  0  0  0 
  6 10  2  0  0  0  0 
  7 10  1  0  0  0  0 
  7 22  1  0  0  0  0 
  8 11  1  0  0  0  0 
  9  8  1  0  0  0  0 
  9 25  1  1  0  0  0 
  9  1  1  0  0  0  0 
 10  9  1  0  0  0  0 
 11  2  1  0  0  0  0 
 11 26  1  0  0  0  0 
 13  1  1  0  0  0  0 
 14  1  1  0  0  0  0 
 16  2  1  0  0  0  0 
 17  2  1  0  0  0  0 
 18  3  1  0  0  0  0 
 19  4  1  0  0  0  0 
 20  5  1  0  0  0  0 
 23  8  1  0  0  0  0 
 24  8  1  0  0  0  0 
M  END 
>  <HBA> 
1 
 
>  <HBD> 
1 
 
>  <TPSA> 
12.03 
 
>  <cid> 
22276 
 
>  <dipole> 
0.96 
 
>  <excitation_energy_1> 
5.242 
 
>  <excitation_energy_2> 
5.304 
 
>  <excitation_energy_3> 
5.316 
 
>  <excitation_energy_4> 
5.423 
 
>  <homo_energy> 
-5.938 
 
>  <homo_lumo_gap> 
6.036 
 
>  <logP> 
2.4 
 
>  <lumo_energy> 
0.098 
 
>  <melting_point> 
32.34 
 
>  <molecular_refractivity> 
48.63 
 
>  <oscillator_strength_1> 
0.0008 
 
>  <oscillator_strength_2> 
0.0003 
 
>  <oscillator_strength_3> 
0.0015 
 
>  <oscillator_strength_4> 
0.001 
 
>  <open_babel_can_smiles> 
CNC[C@@H](c1ccccc1)C 
 
>  <mulliken_charges> 
26 
1   -0.435928 
2   -0.298526 
3   -0.131404 
4   -0.129959 
5   -0.125788 
6   -0.184399 
7   -0.195504 
8   -0.110959 
9   -0.183569 
10   0.182442 
11   -0.540719 
12   0.164664 
13   0.13868 
14   0.142503 
15   0.147591 
16   0.119895 
17   0.151982 
18   0.126615 
19   0.127163 
20   0.126654 
21   0.126155 
22   0.120792 
23   0.116318 
24   0.135857 
25   0.118283 
26   0.291162 
 
>  <lowdin_charges> 
26 
1   -0.441883 
2   -0.358647 
3   -0.160862 
4   -0.156676 
5   -0.156064 
6   -0.166143 
7   -0.171777 
8   -0.204009 
9   -0.125782 
10   0.001287 
11   -0.363844 
12   0.15929 
13   0.147354 
14   0.148036 
15   0.148861 
16   0.121164 
17   0.14942 
18   0.155164 
19   0.157473 
20   0.156867 
21   0.155077 
22   0.153905 
23   0.120968 
24   0.141672 
25   0.138104 
26   0.251042 
 
$$$$ 
 
