PCCDB-ID:  62445 
public computational chemistry database (PCCDB) project, http://pccdb.org 
 
 32 31  0  0  1  0  0  0  0  0999 V2000 
    6.0949   -1.3744   -3.0870 C   0  0  0  0  0  0  0  0  0  0  0  0 
    4.2876    0.4042    5.1868 C   0  0  0  0  0  0  0  0  0  0  0  0 
    6.4019    1.0545    3.9547 C   0  0  0  0  0  0  0  0  0  0  0  0 
    5.0812    0.6101   -0.8052 C   0  0  0  0  0  0  0  0  0  0  0  0 
    6.9387   -0.7190   -1.9839 C   0  0  0  0  0  0  0  0  0  0  0  0 
    5.4081   -1.2816    3.6769 C   0  0  0  0  0  0  0  0  0  0  0  0 
    5.7139   -1.7151   -0.0026 C   0  0  0  0  0  0  0  0  0  0  0  0 
    5.1128    0.2221    3.9053 C   0  0  0  0  0  0  0  0  0  0  0  0 
    6.2098   -0.4195   -0.6538 C   0  0  2  0  0  0  0  0  0  0  0  0 
    6.0903   -1.5583    2.3533 C   0  0  0  0  0  0  0  0  0  0  0  0 
    7.2721   -1.7905    2.2066 O   0  0  0  0  0  0  0  0  0  0  0  0 
    5.1992   -1.4911    1.3324 O   0  0  0  0  0  0  0  0  0  0  0  0 
    6.6990   -1.5256   -3.9887 H   0  0  0  0  0  0  0  0  0  0  0  0 
    5.2367   -0.7544   -3.3684 H   0  0  0  0  0  0  0  0  0  0  0  0 
    5.7125   -2.3567   -2.7861 H   0  0  0  0  0  0  0  0  0  0  0  0 
    4.0479    1.4612    5.3510 H   0  0  0  0  0  0  0  0  0  0  0  0 
    4.8418    0.0491    6.0651 H   0  0  0  0  0  0  0  0  0  0  0  0 
    3.3439   -0.1515    5.1378 H   0  0  0  0  0  0  0  0  0  0  0  0 
    6.1714    2.1197    4.0720 H   0  0  0  0  0  0  0  0  0  0  0  0 
    7.0036    0.9372    3.0470 H   0  0  0  0  0  0  0  0  0  0  0  0 
    7.0272    0.7513    4.8038 H   0  0  0  0  0  0  0  0  0  0  0  0 
    5.4613    1.5468   -1.2294 H   0  0  0  0  0  0  0  0  0  0  0  0 
    4.6284    0.8377    0.1651 H   0  0  0  0  0  0  0  0  0  0  0  0 
    4.2835    0.2443   -1.4630 H   0  0  0  0  0  0  0  0  0  0  0  0 
    7.3489    0.2260   -2.3647 H   0  0  0  0  0  0  0  0  0  0  0  0 
    7.8050   -1.3588   -1.7681 H   0  0  0  0  0  0  0  0  0  0  0  0 
    4.4669   -1.8427    3.7087 H   0  0  0  0  0  0  0  0  0  0  0  0 
    6.0652   -1.6561    4.4685 H   0  0  0  0  0  0  0  0  0  0  0  0 
    6.5184   -2.4531    0.0549 H   0  0  0  0  0  0  0  0  0  0  0  0 
    4.8660   -2.1391   -0.5474 H   0  0  0  0  0  0  0  0  0  0  0  0 
    4.5062    0.5685    3.0572 H   0  0  0  0  0  0  0  0  0  0  0  0 
    6.9643   -0.0020    0.0265 H   0  0  0  0  0  0  0  0  0  0  0  0 
  1 15  1  0  0  0  0 
  1  5  1  0  0  0  0 
  2 16  1  0  0  0  0 
  2 17  1  0  0  0  0 
  3 19  1  0  0  0  0 
  3 21  1  0  0  0  0 
  4  9  1  0  0  0  0 
  4 23  1  0  0  0  0 
  5 26  1  0  0  0  0 
  5  9  1  0  0  0  0 
  6 27  1  0  0  0  0 
  6  8  1  0  0  0  0 
  6 28  1  0  0  0  0 
  7 29  1  0  0  0  0 
  7 12  1  0  0  0  0 
  8  3  1  0  0  0  0 
  8  2  1  0  0  0  0 
  9  7  1  0  0  0  0 
  9 32  1  1  0  0  0 
 10  6  1  0  0  0  0 
 11 10  2  0  0  0  0 
 12 10  1  0  0  0  0 
 13  1  1  0  0  0  0 
 14  1  1  0  0  0  0 
 18  2  1  0  0  0  0 
 20  3  1  0  0  0  0 
 22  4  1  0  0  0  0 
 24  4  1  0  0  0  0 
 25  5  1  0  0  0  0 
 30  7  1  0  0  0  0 
 31  8  1  0  0  0  0 
M  END 
>  <HBA> 
2 
 
>  <HBD> 
0 
 
>  <TPSA> 
26.3 
 
>  <cid> 
62445 
 
>  <dipole> 
1.76 
 
>  <excitation_energy_1> 
5.677 
 
>  <excitation_energy_2> 
6.862 
 
>  <excitation_energy_3> 
7.193 
 
>  <excitation_energy_4> 
7.25 
 
>  <homo_energy> 
-7.143 
 
>  <homo_lumo_gap> 
7.535 
 
>  <logP> 
2.622 
 
>  <lumo_energy> 
0.392 
 
>  <melting_point> 
-16.78 
 
>  <molecular_refractivity> 
51.47 
 
>  <oscillator_strength_1> 
0.0022 
 
>  <oscillator_strength_2> 
0.0152 
 
>  <oscillator_strength_3> 
0.0185 
 
>  <oscillator_strength_4> 
0.0021 
 
>  <open_babel_can_smiles> 
CC[C@H](COC(=O)CC(C)C)C 
 
>  <mulliken_charges> 
32 
1   -0.45421 
2   -0.442177 
3   -0.447879 
4   -0.455088 
5   -0.262809 
6   -0.324481 
7   -0.046936 
8   -0.086803 
9   -0.093566 
10   0.604542 
11   -0.481298 
12   -0.46684 
13   0.147565 
14   0.148695 
15   0.145362 
16   0.145539 
17   0.143459 
18   0.143241 
19   0.142013 
20   0.158874 
21   0.145301 
22   0.142578 
23   0.156551 
24   0.141813 
25   0.135704 
26   0.141169 
27   0.156813 
28   0.160056 
29   0.165673 
30   0.146953 
31   0.143875 
32   0.146313 
 
>  <lowdin_charges> 
32 
1   -0.451209 
2   -0.442691 
3   -0.447019 
4   -0.45063 
5   -0.275107 
6   -0.2979 
7   -0.137096 
8   -0.115531 
9   -0.137843 
10   0.194336 
11   -0.269742 
12   -0.197973 
13   0.15369 
14   0.149707 
15   0.146278 
16   0.150064 
17   0.148484 
18   0.149068 
19   0.1482 
20   0.15605 
21   0.150317 
22   0.149959 
23   0.154243 
24   0.147197 
25   0.145071 
26   0.146432 
27   0.163376 
28   0.163774 
29   0.158932 
30   0.151119 
31   0.14441 
32   0.152032 
 
$$$$ 
 
