PCCDB-ID:  18913 
public computational chemistry database (PCCDB) project, http://pccdb.org 
 
 29 30  0  0  1  0  0  0  0  0999 V2000 
    0.7888   -0.3233   -0.5035 C   0  0  0  0  0  0  0  0  0  0  0  0 
    2.0334   -2.8238   -3.5535 C   0  0  0  0  0  0  0  0  0  0  0  0 
    3.0146    0.8405   -1.1154 C   0  0  0  0  0  0  0  0  0  0  0  0 
    3.0178   -1.1549    0.5106 C   0  0  0  0  0  0  0  0  0  0  0  0 
    3.3554   -0.8600   -3.0772 C   0  0  0  0  0  0  0  0  0  0  0  0 
    3.3691   -2.7381   -1.5441 C   0  0  0  0  0  0  0  0  0  0  0  0 
    2.2073    0.0517   -0.0456 C   0  0  2  0  0  0  0  0  0  0  0  0 
    3.9914    0.0153   -1.9873 C   0  0  2  0  0  0  0  0  0  0  0  0 
    4.0003   -1.8381   -0.4723 C   0  0  1  0  0  0  0  0  0  0  0  0 
    4.8518   -0.8644   -1.1769 N   0  0  0  0  0  0  0  0  0  0  0  0 
    2.5927   -1.9735   -2.5170 N   0  0  0  0  0  0  0  0  0  0  0  0 
    0.2332    0.5750   -0.8028 H   0  0  0  0  0  0  0  0  0  0  0  0 
    0.2342   -0.7952    0.3177 H   0  0  0  0  0  0  0  0  0  0  0  0 
    0.8180   -1.0148   -1.3489 H   0  0  0  0  0  0  0  0  0  0  0  0 
    1.4027   -2.2269   -4.2221 H   0  0  0  0  0  0  0  0  0  0  0  0 
    1.4085   -3.6016   -3.0994 H   0  0  0  0  0  0  0  0  0  0  0  0 
    2.8073   -3.3243   -4.1693 H   0  0  0  0  0  0  0  0  0  0  0  0 
    3.6334    1.5884   -0.5977 H   0  0  0  0  0  0  0  0  0  0  0  0 
    2.3269    1.4121   -1.7540 H   0  0  0  0  0  0  0  0  0  0  0  0 
    2.3316   -1.8990    0.9369 H   0  0  0  0  0  0  0  0  0  0  0  0 
    3.6314   -0.7984    1.3511 H   0  0  0  0  0  0  0  0  0  0  0  0 
    4.1722   -1.2224   -3.7326 H   0  0  0  0  0  0  0  0  0  0  0  0 
    2.6787   -0.2546   -3.6938 H   0  0  0  0  0  0  0  0  0  0  0  0 
    2.7038   -3.4728   -1.0729 H   0  0  0  0  0  0  0  0  0  0  0  0 
    4.1903   -3.2970   -2.0351 H   0  0  0  0  0  0  0  0  0  0  0  0 
    2.0703    0.7407    0.8000 H   0  0  0  0  0  0  0  0  0  0  0  0 
    4.6463    0.7243   -2.5112 H   0  0  0  0  0  0  0  0  0  0  0  0 
    4.6614   -2.4857    0.1184 H   0  0  0  0  0  0  0  0  0  0  0  0 
    5.3534   -0.3009   -0.4893 H   0  0  0  0  0  0  0  0  0  0  0  0 
  1  7  1  0  0  0  0 
  1 13  1  0  0  0  0 
  2 16  1  0  0  0  0 
  2 11  1  0  0  0  0 
  3 18  1  0  0  0  0 
  3  7  1  0  0  0  0 
  4 20  1  0  0  0  0 
  4 21  1  0  0  0  0 
  5 11  1  0  0  0  0 
  5  8  1  0  0  0  0 
  6 24  1  0  0  0  0 
  6  9  1  0  0  0  0 
  7  4  1  0  0  0  0 
  7 26  1  1  0  0  0 
  8 27  1  6  0  0  0 
  8 10  1  0  0  0  0 
  8  3  1  0  0  0  0 
  9 28  1  1  0  0  0 
  9  4  1  0  0  0  0 
 10 29  1  0  0  0  0 
 10  9  1  0  0  0  0 
 11  6  1  0  0  0  0 
 12  1  1  0  0  0  0 
 14  1  1  0  0  0  0 
 15  2  1  0  0  0  0 
 17  2  1  0  0  0  0 
 19  3  1  0  0  0  0 
 22  5  1  0  0  0  0 
 23  5  1  0  0  0  0 
 25  6  1  0  0  0  0 
M  END 
>  <HBA> 
2 
 
>  <HBD> 
1 
 
>  <TPSA> 
15.27 
 
>  <cid> 
18913 
 
>  <dipole> 
0.38 
 
>  <excitation_energy_1> 
4.95 
 
>  <excitation_energy_2> 
5.045 
 
>  <excitation_energy_3> 
5.419 
 
>  <excitation_energy_4> 
5.565 
 
>  <homo_energy> 
-5.606 
 
>  <homo_lumo_gap> 
7.331 
 
>  <logP> 
0.955 
 
>  <lumo_energy> 
1.725 
 
>  <melting_point> 
46.42 
 
>  <molecular_refractivity> 
54.68 
 
>  <oscillator_strength_1> 
0.0091 
 
>  <oscillator_strength_2> 
0.0047 
 
>  <oscillator_strength_3> 
0.0219 
 
>  <oscillator_strength_4> 
0.0006 
 
>  <open_babel_can_smiles> 
C[C@@H]1C[C@@H]2CN(C[C@H](C1)N2)C 
 
>  <mulliken_charges> 
29 
1   -0.461494 
2   -0.290664 
3   -0.272558 
4   -0.272795 
5   -0.101805 
6   -0.101655 
7   -0.053479 
8   0.000112 
9   -0.000143 
10   -0.544075 
11   -0.388497 
12   0.125494 
13   0.125663 
14   0.179784 
15   0.146647 
16   0.146655 
17   0.11989 
18   0.118999 
19   0.1278 
20   0.12809 
21   0.119141 
22   0.117261 
23   0.130736 
24   0.130615 
25   0.117265 
26   0.117271 
27   0.124939 
28   0.1249 
29   0.285902 
 
>  <lowdin_charges> 
29 
1   -0.463219 
2   -0.359617 
3   -0.296491 
4   -0.296409 
5   -0.20564 
6   -0.205949 
7   -0.125723 
8   -0.077555 
9   -0.077453 
10   -0.362849 
11   -0.180661 
12   0.140276 
13   0.140943 
14   0.162798 
15   0.150505 
16   0.150075 
17   0.123211 
18   0.138871 
19   0.145457 
20   0.145529 
21   0.138435 
22   0.124955 
23   0.143986 
24   0.143699 
25   0.125135 
26   0.136853 
27   0.145665 
28   0.14573 
29   0.249442 
 
$$$$ 
 
