PCCDB-ID:  19498 
public computational chemistry database (PCCDB) project, http://pccdb.org 
 
 19 19  0  0  0  0  0  0  0  0999 V2000 
    0.6151   -1.1254    0.0409 C   0  0  0  0  0  0  0  0  0  0  0  0 
    3.6936   -1.6392   -4.2804 C   0  0  0  0  0  0  0  0  0  0  0  0 
    4.0931   -0.6492   -3.3834 C   0  0  0  0  0  0  0  0  0  0  0  0 
    2.8638   -2.6685   -3.8476 C   0  0  0  0  0  0  0  0  0  0  0  0 
    3.6508   -0.6975   -2.0625 C   0  0  0  0  0  0  0  0  0  0  0  0 
    2.4227   -2.7500   -2.5174 C   0  0  0  0  0  0  0  0  0  0  0  0 
    2.8199   -1.7339   -1.6171 C   0  0  0  0  0  0  0  0  0  0  0  0 
    1.5382   -3.9501   -2.2270 C   0  0  0  0  0  0  0  0  0  0  0  0 
    1.0569   -4.6037   -3.1263 O   0  0  0  0  0  0  0  0  0  0  0  0 
    1.3055   -4.2913   -0.9469 O   0  0  0  0  0  0  0  0  0  0  0  0 
    2.3635   -1.6865    0.1312 S   0  0  0  0  0  0  0  0  0  0  0  0 
    0.2788   -1.0001    1.0734 H   0  0  0  0  0  0  0  0  0  0  0  0 
   -0.0075   -1.8740   -0.4536 H   0  0  0  0  0  0  0  0  0  0  0  0 
    0.5518   -0.1682   -0.4807 H   0  0  0  0  0  0  0  0  0  0  0  0 
    4.0263   -1.6113   -5.3140 H   0  0  0  0  0  0  0  0  0  0  0  0 
    4.7395    0.1618   -3.7073 H   0  0  0  0  0  0  0  0  0  0  0  0 
    2.5340   -3.4442   -4.5296 H   0  0  0  0  0  0  0  0  0  0  0  0 
    3.9464    0.0740   -1.3585 H   0  0  0  0  0  0  0  0  0  0  0  0 
    1.7830   -3.6846   -0.3325 H   0  0  0  0  0  0  0  0  0  0  0  0 
  1 11  1  0  0  0  0 
  1 12  1  0  0  0  0 
  2  4  2  0  0  0  0 
  2  3  1  0  0  0  0 
  3  5  2  0  0  0  0 
  4  6  1  0  0  0  0 
  5  7  1  0  0  0  0 
  5 18  1  0  0  0  0 
  6  8  1  0  0  0  0 
  6  7  2  0  0  0  0 
  7 11  1  0  0  0  0 
  8 10  1  0  0  0  0 
  9  8  2  0  0  0  0 
 10 19  1  0  0  0  0 
 13  1  1  0  0  0  0 
 14  1  1  0  0  0  0 
 15  2  1  0  0  0  0 
 16  3  1  0  0  0  0 
 17  4  1  0  0  0  0 
M  END 
>  <HBA> 
3 
 
>  <HBD> 
1 
 
>  <TPSA> 
62.6 
 
>  <cid> 
19498 
 
>  <dipole> 
4.73 
 
>  <excitation_energy_1> 
4.328 
 
>  <excitation_energy_2> 
4.545 
 
>  <excitation_energy_3> 
4.886 
 
>  <excitation_energy_4> 
5.201 
 
>  <homo_energy> 
-6.985 
 
>  <homo_lumo_gap> 
5.393 
 
>  <logP> 
2.107 
 
>  <lumo_energy> 
-1.592 
 
>  <melting_point> 
108.46 
 
>  <molecular_refractivity> 
45.12 
 
>  <oscillator_strength_1> 
0.0093 
 
>  <oscillator_strength_2> 
0.0041 
 
>  <oscillator_strength_3> 
0.0184 
 
>  <oscillator_strength_4> 
0.0279 
 
>  <open_babel_can_smiles> 
CSc1ccccc1C(=O)O 
 
>  <mulliken_charges> 
19 
1   -0.579944 
2   -0.130784 
3   -0.110477 
4   -0.14446 
5   -0.143203 
6   0.044329 
7   -0.160188 
8   0.55223 
9   -0.452426 
10   -0.589587 
11   0.06384 
12   0.19449 
13   0.204309 
14   0.195592 
15   0.148002 
16   0.146415 
17   0.180536 
18   0.15697 
19   0.424358 
 
>  <lowdin_charges> 
19 
1   -0.541633 
2   -0.144515 
3   -0.139811 
4   -0.1253 
5   -0.155123 
6   -0.059237 
7   -0.131789 
8   0.192166 
9   -0.252589 
10   -0.362062 
11   0.155913 
12   0.180829 
13   0.176114 
14   0.173986 
15   0.165598 
16   0.167091 
17   0.187031 
18   0.173274 
19   0.340058 
 
$$$$ 
 
