PCCDB-ID:  16184 
public computational chemistry database (PCCDB) project, http://pccdb.org 
 
 31 32  0  0  0  0  0  0  0  0999 V2000 
    6.2902   -0.3707   -1.9028 C   0  0  0  0  0  0  0  0  0  0  0  0 
    6.7004   -2.4704    4.8705 C   0  0  0  0  0  0  0  0  0  0  0  0 
    6.6240    0.9923    6.0157 C   0  0  0  0  0  0  0  0  0  0  0  0 
    6.2387    2.2683    5.6399 C   0  0  0  0  0  0  0  0  0  0  0  0 
    4.4443    1.0850    1.0731 C   0  0  0  0  0  0  0  0  0  0  0  0 
    5.6372    0.7249    0.1714 C   0  0  0  0  0  0  0  0  0  0  0  0 
    5.8525    0.0448    3.8996 C   0  0  0  0  0  0  0  0  0  0  0  0 
    4.6817    3.2058    2.5040 C   0  0  0  0  0  0  0  0  0  0  0  0 
    4.8321    1.8542    2.3038 C   0  0  0  0  0  0  0  0  0  0  0  0 
    6.4310   -0.1147    5.1543 C   0  0  0  0  0  0  0  0  0  0  0  0 
    5.4564    1.3379    3.4979 C   0  0  0  0  0  0  0  0  0  0  0  0 
    5.6555    2.4322    4.3778 C   0  0  0  0  0  0  0  0  0  0  0  0 
    5.1930    0.0073   -1.0203 N   0  0  0  0  0  0  0  0  0  0  0  0 
    5.1757    3.5622    3.7431 N   0  0  0  0  0  0  0  0  0  0  0  0 
    6.8594   -1.3139    5.6687 O   0  0  0  0  0  0  0  0  0  0  0  0 
    5.9002   -0.9515   -2.7456 H   0  0  0  0  0  0  0  0  0  0  0  0 
    7.0880   -0.9628   -1.4146 H   0  0  0  0  0  0  0  0  0  0  0  0 
    6.7563    0.5346   -2.3099 H   0  0  0  0  0  0  0  0  0  0  0  0 
    7.0977   -3.3010    5.4579 H   0  0  0  0  0  0  0  0  0  0  0  0 
    7.2601   -2.3938    3.9277 H   0  0  0  0  0  0  0  0  0  0  0  0 
    5.6430   -2.6634    4.6405 H   0  0  0  0  0  0  0  0  0  0  0  0 
    7.0811    0.8087    6.9826 H   0  0  0  0  0  0  0  0  0  0  0  0 
    6.3883    3.1110    6.3101 H   0  0  0  0  0  0  0  0  0  0  0  0 
    3.9285    0.1565    1.3633 H   0  0  0  0  0  0  0  0  0  0  0  0 
    3.7265    1.6590    0.4755 H   0  0  0  0  0  0  0  0  0  0  0  0 
    6.3913    0.1650    0.7590 H   0  0  0  0  0  0  0  0  0  0  0  0 
    6.1296    1.6508   -0.1538 H   0  0  0  0  0  0  0  0  0  0  0  0 
    5.7021   -0.7992    3.2359 H   0  0  0  0  0  0  0  0  0  0  0  0 
    4.2523    3.9522    1.8489 H   0  0  0  0  0  0  0  0  0  0  0  0 
    4.6946   -0.8336   -0.7311 H   0  0  0  0  0  0  0  0  0  0  0  0 
    5.1642    4.4921    4.1306 H   0  0  0  0  0  0  0  0  0  0  0  0 
  1 17  1  0  0  0  0 
  1 13  1  0  0  0  0 
  2 19  1  0  0  0  0 
  2 15  1  0  0  0  0 
  3 22  1  0  0  0  0 
  4  3  1  0  0  0  0 
  4 23  1  0  0  0  0 
  5 24  1  0  0  0  0 
  5  9  1  0  0  0  0 
  6 26  1  0  0  0  0 
  6  5  1  0  0  0  0 
  7 10  1  0  0  0  0 
  8 14  1  0  0  0  0 
  9  8  2  0  0  0  0 
  9 11  1  0  0  0  0 
 10 15  1  0  0  0  0 
 10  3  2  0  0  0  0 
 11  7  2  0  0  0  0 
 11 12  1  0  0  0  0 
 12  4  2  0  0  0  0 
 13 30  1  0  0  0  0 
 13  6  1  0  0  0  0 
 14 31  1  0  0  0  0 
 14 12  1  0  0  0  0 
 16  1  1  0  0  0  0 
 18  1  1  0  0  0  0 
 20  2  1  0  0  0  0 
 21  2  1  0  0  0  0 
 25  5  1  0  0  0  0 
 27  6  1  0  0  0  0 
 28  7  1  0  0  0  0 
 29  8  1  0  0  0  0 
M  END 
>  <HBA> 
2 
 
>  <HBD> 
2 
 
>  <TPSA> 
37.05 
 
>  <cid> 
16184 
 
>  <dipole> 
0.8 
 
>  <excitation_energy_1> 
4.407 
 
>  <excitation_energy_2> 
4.662 
 
>  <excitation_energy_3> 
4.676 
 
>  <excitation_energy_4> 
4.808 
 
>  <homo_energy> 
-5.167 
 
>  <homo_lumo_gap> 
5.121 
 
>  <logP> 
2.329 
 
>  <lumo_energy> 
-0.046 
 
>  <melting_point> 
131.72 
 
>  <molecular_refractivity> 
62.17 
 
>  <oscillator_strength_1> 
0.0526 
 
>  <oscillator_strength_2> 
0.0975 
 
>  <oscillator_strength_3> 
0.0081 
 
>  <oscillator_strength_4> 
0.0078 
 
>  <open_babel_can_smiles> 
CNCCc1c[nH]c2c1cc(OC)cc2 
 
>  <mulliken_charges> 
31 
1   -0.297653 
2   -0.206578 
3   -0.193784 
4   -0.162476 
5   -0.355713 
6   -0.110032 
7   -0.288768 
8   -0.005642 
9   0.071028 
10   0.371922 
11   0.077387 
12   0.309305 
13   -0.539793 
14   -0.693959 
15   -0.515703 
16   0.145735 
17   0.117448 
18   0.150784 
19   0.163905 
20   0.14561 
21   0.145615 
22   0.132057 
23   0.122121 
24   0.131952 
25   0.150174 
26   0.115056 
27   0.139475 
28   0.122043 
29   0.145185 
30   0.288857 
31   0.32444 
 
>  <lowdin_charges> 
31 
1   -0.362044 
2   -0.277117 
3   -0.185341 
4   -0.177213 
5   -0.272864 
6   -0.203883 
7   -0.228204 
8   -0.139858 
9   -0.064415 
10   0.090039 
11   -0.026424 
12   0.016132 
13   -0.365166 
14   -0.200239 
15   -0.207883 
16   0.149873 
17   0.120346 
18   0.148528 
19   0.160404 
20   0.140965 
21   0.13986 
22   0.164429 
23   0.157076 
24   0.14258 
25   0.156723 
26   0.118764 
27   0.142411 
28   0.159668 
29   0.164329 
30   0.248997 
31   0.289528 
 
$$$$ 
 
