PCCDB-ID:  36882 
public computational chemistry database (PCCDB) project, http://pccdb.org 
 
 18 18  0  0  0  0  0  0  0  0999 V2000 
    3.6669    0.3961   -1.0641 C   0  0  0  0  0  0  0  0  0  0  0  0 
    2.0818   -1.3280   -0.2268 C   0  0  0  0  0  0  0  0  0  0  0  0 
    4.3469   -0.2970   -2.0810 C   0  0  0  0  0  0  0  0  0  0  0  0 
    2.3320   -2.4080   -1.0322 C   0  0  0  0  0  0  0  0  0  0  0  0 
    2.6579   -0.0273   -0.2114 C   0  0  0  0  0  0  0  0  0  0  0  0 
    4.2150   -1.5913   -2.5648 C   0  0  0  0  0  0  0  0  0  0  0  0 
    3.2579   -2.6301   -2.1197 C   0  0  0  0  0  0  0  0  0  0  0  0 
    2.1959    0.8476    0.7886 N   0  0  0  0  0  0  0  0  0  0  0  0 
    5.0251   -2.0581   -3.5573 N   0  0  0  0  0  0  0  0  0  0  0  0 
    3.2721   -3.7245   -2.7204 O   0  0  0  0  0  0  0  0  0  0  0  0 
    3.9998    1.4243   -0.9243 H   0  0  0  0  0  0  0  0  0  0  0  0 
    1.3117   -1.4887    0.5282 H   0  0  0  0  0  0  0  0  0  0  0  0 
    5.1147    0.2951   -2.5795 H   0  0  0  0  0  0  0  0  0  0  0  0 
    1.7300   -3.2948   -0.8475 H   0  0  0  0  0  0  0  0  0  0  0  0 
    1.2269    0.7129    1.0517 H   0  0  0  0  0  0  0  0  0  0  0  0 
    2.3870    1.8265    0.6112 H   0  0  0  0  0  0  0  0  0  0  0  0 
    4.7406   -2.9574   -3.9319 H   0  0  0  0  0  0  0  0  0  0  0  0 
    5.5586   -1.4250   -4.1323 H   0  0  0  0  0  0  0  0  0  0  0  0 
  1 11  1  0  0  0  0 
  1  5  2  0  0  0  0 
  2  5  1  0  0  0  0 
  2 12  1  0  0  0  0 
  3  1  1  0  0  0  0 
  4 14  1  0  0  0  0 
  4  2  2  0  0  0  0 
  5  8  1  0  0  0  0 
  6  7  1  0  0  0  0 
  6  3  2  0  0  0  0 
  7  4  1  0  0  0  0 
  8 15  1  0  0  0  0 
  9  6  1  0  0  0  0 
 10  7  2  0  0  0  0 
 13  3  1  0  0  0  0 
 16  8  1  0  0  0  0 
 17  9  1  0  0  0  0 
 18  9  1  0  0  0  0 
M  END 
>  <HBA> 
3 
 
>  <HBD> 
2 
 
>  <TPSA> 
69.11 
 
>  <cid> 
36882 
 
>  <dipole> 
4.68 
 
>  <excitation_energy_1> 
3.238 
 
>  <excitation_energy_2> 
3.667 
 
>  <excitation_energy_3> 
3.905 
 
>  <excitation_energy_4> 
4.158 
 
>  <homo_energy> 
-4.789 
 
>  <homo_lumo_gap> 
3.516 
 
>  <logP> 
1.374 
 
>  <lumo_energy> 
-1.274 
 
>  <melting_point> 
138.07 
 
>  <molecular_refractivity> 
41.52 
 
>  <oscillator_strength_1> 
0.1093 
 
>  <oscillator_strength_2> 
0.2132 
 
>  <oscillator_strength_3> 
0.0002 
 
>  <oscillator_strength_4> 
0.0022 
 
>  <open_babel_can_smiles> 
Nc1ccc(=O)c(cc1)N 
 
>  <mulliken_charges> 
18 
1   -0.183656 
2   -0.162339 
3   -0.212581 
4   -0.203512 
5   0.324521 
6   0.287921 
7   0.413708 
8   -0.772673 
9   -0.769831 
10   -0.572556 
11   0.120709 
12   0.132323 
13   0.121395 
14   0.147749 
15   0.321363 
16   0.320035 
17   0.361239 
18   0.326184 
 
>  <lowdin_charges> 
18 
1   -0.180799 
2   -0.154919 
3   -0.193789 
4   -0.174815 
5   0.044694 
6   0.045219 
7   0.107675 
8   -0.484593 
9   -0.44966 
10   -0.33632 
11   0.15474 
12   0.160455 
13   0.157722 
14   0.174249 
15   0.273603 
16   0.272347 
17   0.300954 
18   0.283236 
 
$$$$ 
 
