PCCDB-ID:  10322 
public computational chemistry database (PCCDB) project, http://pccdb.org 
 
 19 20  0  0  0  0  0  0  0  0999 V2000 
    1.9244    0.9245    0.2151 C   0  0  0  0  0  0  0  0  0  0  0  0 
    0.6256    1.4626    0.1679 C   0  0  0  0  0  0  0  0  0  0  0  0 
    1.0710   -1.3475    0.0186 C   0  0  0  0  0  0  0  0  0  0  0  0 
    3.5742   -0.9913    0.1674 C   0  0  0  0  0  0  0  0  0  0  0  0 
   -2.4084   -0.4473   -0.1574 C   0  0  0  0  0  0  0  0  0  0  0  0 
    2.1552   -0.4523    0.1426 C   0  0  0  0  0  0  0  0  0  0  0  0 
   -0.4172    0.5673    0.0375 C   0  0  0  0  0  0  0  0  0  0  0  0 
   -0.1967   -0.8055   -0.0369 C   0  0  0  0  0  0  0  0  0  0  0  0 
    4.4698   -0.2091    0.9475 O   0  0  0  0  0  0  0  0  0  0  0  0 
   -1.7663    0.8260   -0.0244 O   0  0  0  0  0  0  0  0  0  0  0  0 
   -1.3986   -1.4639   -0.1484 O   0  0  0  0  0  0  0  0  0  0  0  0 
    2.7763    1.5893    0.3159 H   0  0  0  0  0  0  0  0  0  0  0  0 
    0.4475    2.5309    0.2290 H   0  0  0  0  0  0  0  0  0  0  0  0 
    1.2233   -2.4216   -0.0284 H   0  0  0  0  0  0  0  0  0  0  0  0 
    4.0052   -0.9858   -0.8412 H   0  0  0  0  0  0  0  0  0  0  0  0 
    3.5633   -2.0413    0.5023 H   0  0  0  0  0  0  0  0  0  0  0  0 
   -2.9548   -0.4840   -1.1079 H   0  0  0  0  0  0  0  0  0  0  0  0 
   -3.0895   -0.6026    0.6879 H   0  0  0  0  0  0  0  0  0  0  0  0 
    4.0902   -0.1449    1.8386 H   0  0  0  0  0  0  0  0  0  0  0  0 
  1 12  1  0  0  0  0 
  2  1  1  0  0  0  0 
  2 13  1  0  0  0  0 
  3  6  1  0  0  0  0 
  4 16  1  0  0  0  0 
  4  9  1  0  0  0  0 
  5 11  1  0  0  0  0 
  5 10  1  0  0  0  0 
  5 18  1  0  0  0  0 
  6  4  1  0  0  0  0 
  6  1  2  0  0  0  0 
  7  2  2  0  0  0  0 
  8  3  2  0  0  0  0 
  8  7  1  0  0  0  0 
  9 19  1  0  0  0  0 
 10  7  1  0  0  0  0 
 11  8  1  0  0  0  0 
 14  3  1  0  0  0  0 
 15  4  1  0  0  0  0 
 17  5  1  0  0  0  0 
M  END 
>  <HBA> 
3 
 
>  <HBD> 
1 
 
>  <TPSA> 
38.69 
 
>  <cid> 
10322 
 
>  <dipole> 
1.86 
 
>  <excitation_energy_1> 
4.709 
 
>  <excitation_energy_2> 
5.116 
 
>  <excitation_energy_3> 
5.265 
 
>  <excitation_energy_4> 
5.512 
 
>  <homo_energy> 
-5.576 
 
>  <homo_lumo_gap> 
5.538 
 
>  <logP> 
0.908 
 
>  <lumo_energy> 
-0.038 
 
>  <melting_point> 
61.23 
 
>  <molecular_refractivity> 
38.63 
 
>  <oscillator_strength_1> 
0.0823 
 
>  <oscillator_strength_2> 
0.0366 
 
>  <oscillator_strength_3> 
0.0244 
 
>  <oscillator_strength_4> 
0.0211 
 
>  <open_babel_can_smiles> 
OCc1ccc2c(c1)OCO2 
 
>  <mulliken_charges> 
19 
1   -0.193688 
2   -0.182469 
3   -0.240493 
4   -0.088531 
5   0.195094 
6   0.088523 
7   0.331649 
8   0.337001 
9   -0.608917 
10   -0.532342 
11   -0.534634 
12   0.14459 
13   0.145033 
14   0.138594 
15   0.164551 
16   0.128939 
17   0.159479 
18   0.159737 
19   0.387883 
 
>  <lowdin_charges> 
19 
1   -0.174417 
2   -0.179282 
3   -0.191693 
4   -0.128757 
5   0.018314 
6   -0.038961 
7   0.070933 
8   0.072459 
9   -0.458992 
10   -0.208739 
11   -0.207438 
12   0.168215 
13   0.168471 
14   0.165453 
15   0.156207 
16   0.1304 
17   0.147481 
18   0.148999 
19   0.341347 
 
$$$$ 
 
