PCCDB-ID:  11327 
public computational chemistry database (PCCDB) project, http://pccdb.org 
 
 24 25  0  0  0  0  0  0  0  0999 V2000 
    0.8439    0.0879    0.1224 C   0  0  0  0  0  0  0  0  0  0  0  0 
    5.1573    2.6865    0.0134 C   0  0  0  0  0  0  0  0  0  0  0  0 
    6.5943   -2.3304   -0.0852 C   0  0  0  0  0  0  0  0  0  0  0  0 
    7.2992   -1.1050   -0.0943 C   0  0  0  0  0  0  0  0  0  0  0  0 
    5.2177   -2.3320   -0.0425 C   0  0  0  0  0  0  0  0  0  0  0  0 
    6.6153    0.0918   -0.0600 C   0  0  0  0  0  0  0  0  0  0  0  0 
    3.0734    1.2949    0.0641 C   0  0  0  0  0  0  0  0  0  0  0  0 
    3.0632   -1.1098    0.0384 C   0  0  0  0  0  0  0  0  0  0  0  0 
    2.3525    0.0682    0.0733 C   0  0  0  0  0  0  0  0  0  0  0  0 
    4.4498    1.3521    0.0214 C   0  0  0  0  0  0  0  0  0  0  0  0 
    4.4839   -1.1168   -0.0063 C   0  0  0  0  0  0  0  0  0  0  0  0 
    5.1956    0.1270   -0.0152 C   0  0  0  0  0  0  0  0  0  0  0  0 
    0.4228    0.6235   -0.7381 H   0  0  0  0  0  0  0  0  0  0  0  0 
    0.4802    0.5984    1.0235 H   0  0  0  0  0  0  0  0  0  0  0  0 
    0.4302   -0.9253    0.1217 H   0  0  0  0  0  0  0  0  0  0  0  0 
    4.4364    3.5088    0.0464 H   0  0  0  0  0  0  0  0  0  0  0  0 
    5.7709    2.8170   -0.8870 H   0  0  0  0  0  0  0  0  0  0  0  0 
    5.8270    2.7972    0.8759 H   0  0  0  0  0  0  0  0  0  0  0  0 
    7.1415   -3.2689   -0.1121 H   0  0  0  0  0  0  0  0  0  0  0  0 
    8.3855   -1.1083   -0.1273 H   0  0  0  0  0  0  0  0  0  0  0  0 
    4.6688   -3.2710   -0.0344 H   0  0  0  0  0  0  0  0  0  0  0  0 
    7.1708    1.0243   -0.0686 H   0  0  0  0  0  0  0  0  0  0  0  0 
    2.5093    2.2257    0.0916 H   0  0  0  0  0  0  0  0  0  0  0  0 
    2.5392   -2.0637    0.0452 H   0  0  0  0  0  0  0  0  0  0  0  0 
  1 14  1  0  0  0  0 
  2 10  1  0  0  0  0 
  2 16  1  0  0  0  0 
  2 18  1  0  0  0  0 
  3  5  1  0  0  0  0 
  4  3  2  0  0  0  0 
  4  6  1  0  0  0  0 
  5 21  1  0  0  0  0 
  5 11  2  0  0  0  0 
  6 12  2  0  0  0  0 
  7  9  1  0  0  0  0 
  7 23  1  0  0  0  0 
  8 24  1  0  0  0  0 
  8  9  2  0  0  0  0 
  9  1  1  0  0  0  0 
 10  7  2  0  0  0  0 
 11  8  1  0  0  0  0 
 12 11  1  0  0  0  0 
 12 10  1  0  0  0  0 
 13  1  1  0  0  0  0 
 15  1  1  0  0  0  0 
 17  2  1  0  0  0  0 
 19  3  1  0  0  0  0 
 20  4  1  0  0  0  0 
 22  6  1  0  0  0  0 
M  END 
>  <HBA> 
0 
 
>  <HBD> 
0 
 
>  <TPSA> 
0.0 
 
>  <cid> 
11327 
 
>  <dipole> 
0.45 
 
>  <excitation_energy_1> 
4.258 
 
>  <excitation_energy_2> 
4.38 
 
>  <excitation_energy_3> 
5.314 
 
>  <excitation_energy_4> 
5.502 
 
>  <homo_energy> 
-5.589 
 
>  <homo_lumo_gap> 
4.762 
 
>  <logP> 
3.457 
 
>  <lumo_energy> 
-0.827 
 
>  <melting_point> 
57.33 
 
>  <molecular_refractivity> 
53.88 
 
>  <oscillator_strength_1> 
0.0624 
 
>  <oscillator_strength_2> 
0.0151 
 
>  <oscillator_strength_3> 
0.0006 
 
>  <oscillator_strength_4> 
0.139 
 
>  <open_babel_can_smiles> 
Cc1cc2ccccc2c(c1)C 
 
>  <mulliken_charges> 
24 
1   -0.532559 
2   -0.535862 
3   -0.135116 
4   -0.133554 
5   -0.19524 
6   -0.199563 
7   -0.256223 
8   -0.268875 
9   0.195898 
10   0.142941 
11   0.150274 
12   0.073177 
13   0.160607 
14   0.160727 
15   0.155355 
16   0.155496 
17   0.162128 
18   0.162051 
19   0.127163 
20   0.126223 
21   0.126756 
22   0.126665 
23   0.113088 
24   0.118441 
 
>  <lowdin_charges> 
24 
1   -0.441697 
2   -0.443882 
3   -0.160445 
4   -0.157753 
5   -0.15803 
6   -0.162928 
7   -0.178817 
8   -0.1767 
9   0.000742 
10   0.001847 
11   0.003547 
12   -0.012152 
13   0.160334 
14   0.160095 
15   0.156219 
16   0.158236 
17   0.159805 
18   0.159896 
19   0.157448 
20   0.154656 
21   0.156291 
22   0.158813 
23   0.151642 
24   0.152834 
 
$$$$ 
 
