PCCDB-ID:  42642 
public computational chemistry database (PCCDB) project, http://pccdb.org 
 
 33 33  0  0  1  0  0  0  0  0999 V2000 
    3.1362    0.8176    3.0639 C   0  0  0  0  0  0  0  0  0  0  0  0 
    2.8123    0.0378   -0.7785 C   0  0  0  0  0  0  0  0  0  0  0  0 
    3.0398    5.1531   -2.6324 C   0  0  0  0  0  0  0  0  0  0  0  0 
    2.6101    0.8586    1.6258 C   0  0  0  0  0  0  0  0  0  0  0  0 
    7.3072    0.0892    0.8956 C   0  0  0  0  0  0  0  0  0  0  0  0 
    7.6488    1.3720    0.4702 C   0  0  0  0  0  0  0  0  0  0  0  0 
    5.9673   -0.2946    0.9311 C   0  0  0  0  0  0  0  0  0  0  0  0 
    6.6469    2.2598    0.0832 C   0  0  0  0  0  0  0  0  0  0  0  0 
    3.4831    0.0846    0.6086 C   0  0  2  0  0  0  0  0  0  0  0  0 
    4.9294    0.5676    0.5450 C   0  0  0  0  0  0  0  0  0  0  0  0 
    5.3177    1.8454    0.1168 C   0  0  0  0  0  0  0  0  0  0  0  0 
    4.3244    3.4387   -1.3529 C   0  0  0  0  0  0  0  0  0  0  0  0 
    2.2454    4.2667   -0.4806 N   0  0  0  0  0  0  0  0  0  0  0  0 
    3.2002    4.2835   -1.4689 N   0  0  0  0  0  0  0  0  0  0  0  0 
    5.1740    3.3760   -2.2093 O   0  0  0  0  0  0  0  0  0  0  0  0 
    1.3279    5.0329   -0.6982 O   0  0  0  0  0  0  0  0  0  0  0  0 
    4.2887    2.7564   -0.1938 O   0  0  0  0  0  0  0  0  0  0  0  0 
    2.4499    1.3351    3.7437 H   0  0  0  0  0  0  0  0  0  0  0  0 
    4.1159    1.3005    3.1496 H   0  0  0  0  0  0  0  0  0  0  0  0 
    3.2428   -0.2145    3.4221 H   0  0  0  0  0  0  0  0  0  0  0  0 
    1.8425   -0.4688   -0.7092 H   0  0  0  0  0  0  0  0  0  0  0  0 
    3.4288   -0.5079   -1.5012 H   0  0  0  0  0  0  0  0  0  0  0  0 
    2.6305    1.0417   -1.1733 H   0  0  0  0  0  0  0  0  0  0  0  0 
    3.8988    4.9981   -3.2807 H   0  0  0  0  0  0  0  0  0  0  0  0 
    2.9823    6.1947   -2.3056 H   0  0  0  0  0  0  0  0  0  0  0  0 
    2.1115    4.9025   -3.1524 H   0  0  0  0  0  0  0  0  0  0  0  0 
    2.4978    1.8975    1.2980 H   0  0  0  0  0  0  0  0  0  0  0  0 
    1.6054    0.4145    1.5972 H   0  0  0  0  0  0  0  0  0  0  0  0 
    8.0790   -0.6110    1.2025 H   0  0  0  0  0  0  0  0  0  0  0  0 
    8.6875    1.6882    0.4419 H   0  0  0  0  0  0  0  0  0  0  0  0 
    5.7068   -1.2944    1.2694 H   0  0  0  0  0  0  0  0  0  0  0  0 
    6.8902    3.2612   -0.2507 H   0  0  0  0  0  0  0  0  0  0  0  0 
    3.5386   -0.9526    0.9682 H   0  0  0  0  0  0  0  0  0  0  0  0 
  1 19  1  0  0  0  0 
  1 20  1  0  0  0  0 
  1 18  1  0  0  0  0 
  2 21  1  0  0  0  0 
  2  9  1  0  0  0  0 
  3 25  1  0  0  0  0 
  3 14  1  0  0  0  0 
  4  1  1  0  0  0  0 
  5  7  1  0  0  0  0 
  5 29  1  0  0  0  0 
  6  5  2  0  0  0  0 
  7 31  1  0  0  0  0 
  8 11  2  0  0  0  0 
  8  6  1  0  0  0  0 
  9 33  1  1  0  0  0 
  9  4  1  0  0  0  0 
 10  9  1  0  0  0  0 
 10  7  2  0  0  0  0 
 11 10  1  0  0  0  0 
 12 17  1  0  0  0  0 
 14 12  1  0  0  0  0 
 14 13  1  0  0  0  0 
 15 12  2  0  0  0  0 
 16 13  1  0  0  0  0 
 17 11  1  0  0  0  0 
 22  2  1  0  0  0  0 
 23  2  1  0  0  0  0 
 24  3  1  0  0  0  0 
 26  3  1  0  0  0  0 
 27  4  1  0  0  0  0 
 28  4  1  0  0  0  0 
 30  6  1  0  0  0  0 
 32  8  1  0  0  0  0 
M  RAD  2  13   2  16   2 
M  END 
>  <HBA> 
5 
 
>  <HBD> 
0 
 
>  <TPSA> 
58.97 
 
>  <cid> 
42642 
 
>  <dipole> 
1.37 
 
>  <excitation_energy_1> 
2.985 
 
>  <excitation_energy_2> 
3.862 
 
>  <excitation_energy_3> 
4.11 
 
>  <excitation_energy_4> 
5.167 
 
>  <homo_energy> 
-6.642 
 
>  <homo_lumo_gap> 
4.58 
 
>  <logP> 
3.312 
 
>  <lumo_energy> 
-2.063 
 
>  <melting_point> 
64.01 
 
>  <molecular_refractivity> 
65.35 
 
>  <oscillator_strength_1> 
0.0012 
 
>  <oscillator_strength_2> 
0.0149 
 
>  <oscillator_strength_3> 
0.0028 
 
>  <oscillator_strength_4> 
0.0006 
 
>  <open_babel_can_smiles> 
CC[C@H](c1ccccc1OC(=O)N([N][O])C)C 
 
>  <mulliken_charges> 
33 
1   -0.447818 
2   -0.452401 
3   -0.328882 
4   -0.264947 
5   -0.111443 
6   -0.149195 
7   -0.212867 
8   -0.127583 
9   -0.150355 
10   0.15413 
11   0.273457 
12   0.822717 
13   0.20075 
14   -0.347214 
15   -0.469434 
16   -0.319049 
17   -0.517183 
18   0.144755 
19   0.151347 
20   0.134679 
21   0.145379 
22   0.149082 
23   0.147597 
24   0.210072 
25   0.189435 
26   0.189911 
27   0.173139 
28   0.129047 
29   0.133494 
30   0.138028 
31   0.132759 
32   0.151357 
33   0.127235 
 
>  <lowdin_charges> 
33 
1   -0.447282 
2   -0.444322 
3   -0.366365 
4   -0.27697 
5   -0.158306 
6   -0.151489 
7   -0.159901 
8   -0.160458 
9   -0.11649 
10   -0.009669 
11   0.092757 
12   0.223132 
13   0.086138 
14   -0.045179 
15   -0.254492 
16   -0.203328 
17   -0.135446 
18   0.152952 
19   0.150818 
20   0.141807 
21   0.150949 
22   0.153817 
23   0.148642 
24   0.190841 
25   0.17191 
26   0.173598 
27   0.156266 
28   0.14077 
29   0.162036 
30   0.161307 
31   0.158214 
32   0.172286 
33   0.141458 
 
$$$$ 
 
