PCCDB-ID:  12161 
public computational chemistry database (PCCDB) project, http://pccdb.org 
 
 19 19  0  0  0  0  0  0  0  0999 V2000 
    2.6224   -1.2968    0.3637 C   0  0  0  0  0  0  0  0  0  0  0  0 
    4.4525    2.7970   -4.6900 C   0  0  0  0  0  0  0  0  0  0  0  0 
    2.4975   -0.0058    0.0302 C   0  0  0  0  0  0  0  0  0  0  0  0 
    3.2441    2.7255   -2.4617 C   0  0  0  0  0  0  0  0  0  0  0  0 
    4.2125    0.6937   -3.2907 C   0  0  0  0  0  0  0  0  0  0  0  0 
    2.7754    2.0408   -1.3425 C   0  0  0  0  0  0  0  0  0  0  0  0 
    3.7465    0.0076   -2.1750 C   0  0  0  0  0  0  0  0  0  0  0  0 
    3.9693    2.0655   -3.4602 C   0  0  0  0  0  0  0  0  0  0  0  0 
    3.0131    0.6671   -1.1722 C   0  0  0  0  0  0  0  0  0  0  0  0 
    2.1928   -1.6789    1.2846 H   0  0  0  0  0  0  0  0  0  0  0  0 
    3.1491   -2.0183   -0.2552 H   0  0  0  0  0  0  0  0  0  0  0  0 
    4.6477    3.8536   -4.4775 H   0  0  0  0  0  0  0  0  0  0  0  0 
    3.7063    2.7604   -5.4955 H   0  0  0  0  0  0  0  0  0  0  0  0 
    5.3745    2.3558   -5.0838 H   0  0  0  0  0  0  0  0  0  0  0  0 
    1.9523    0.6473    0.7122 H   0  0  0  0  0  0  0  0  0  0  0  0 
    3.0443    3.7904   -2.5599 H   0  0  0  0  0  0  0  0  0  0  0  0 
    4.7806    0.1562   -4.0470 H   0  0  0  0  0  0  0  0  0  0  0  0 
    2.2158    2.5798   -0.5810 H   0  0  0  0  0  0  0  0  0  0  0  0 
    3.9591   -1.0535   -2.0810 H   0  0  0  0  0  0  0  0  0  0  0  0 
  1 10  1  0  0  0  0 
  2 12  1  0  0  0  0 
  2  8  1  0  0  0  0 
  3  1  2  0  0  0  0 
  3 15  1  0  0  0  0 
  4  6  2  0  0  0  0 
  5  7  1  0  0  0  0 
  6  9  1  0  0  0  0 
  6 18  1  0  0  0  0 
  7 19  1  0  0  0  0 
  7  9  2  0  0  0  0 
  8  5  2  0  0  0  0 
  8  4  1  0  0  0  0 
  9  3  1  0  0  0  0 
 11  1  1  0  0  0  0 
 13  2  1  0  0  0  0 
 14  2  1  0  0  0  0 
 16  4  1  0  0  0  0 
 17  5  1  0  0  0  0 
M  END 
>  <HBA> 
0 
 
>  <HBD> 
0 
 
>  <TPSA> 
0.0 
 
>  <cid> 
12161 
 
>  <dipole> 
0.62 
 
>  <excitation_energy_1> 
4.661 
 
>  <excitation_energy_2> 
4.823 
 
>  <excitation_energy_3> 
5.554 
 
>  <excitation_energy_4> 
5.691 
 
>  <homo_energy> 
-5.845 
 
>  <homo_lumo_gap> 
5.099 
 
>  <logP> 
2.638 
 
>  <lumo_energy> 
-0.746 
 
>  <melting_point> 
1.29 
 
>  <molecular_refractivity> 
41.5 
 
>  <oscillator_strength_1> 
0.229 
 
>  <oscillator_strength_2> 
0.2137 
 
>  <oscillator_strength_3> 
0.0034 
 
>  <oscillator_strength_4> 
0.2148 
 
>  <open_babel_can_smiles> 
C=Cc1ccc(cc1)C 
 
>  <mulliken_charges> 
19 
1   -0.352152 
2   -0.530087 
3   -0.116365 
4   -0.179162 
5   -0.179718 
6   -0.195978 
7   -0.181611 
8   0.17796 
9   0.170993 
10   0.142726 
11   0.140314 
12   0.157202 
13   0.166285 
14   0.157182 
15   0.125523 
16   0.121863 
17   0.121941 
18   0.126798 
19   0.126285 
 
>  <lowdin_charges> 
19 
1   -0.337669 
2   -0.441589 
3   -0.146683 
4   -0.165336 
5   -0.166162 
6   -0.159123 
7   -0.149692 
8   0.00226 
9   -0.008963 
10   0.162505 
11   0.157023 
12   0.156862 
13   0.162738 
14   0.158462 
15   0.154982 
16   0.152777 
17   0.155582 
18   0.156723 
19   0.155303 
 
$$$$ 
 
