PCCDB-ID:  33044 
public computational chemistry database (PCCDB) project, http://pccdb.org 
 
 27 27  0  0  0  0  0  0  0  0999 V2000 
    1.1139    0.4914   -0.4455 C   0  0  0  0  0  0  0  0  0  0  0  0 
    1.1060   -5.5318   -0.4189 C   0  0  0  0  0  0  0  0  0  0  0  0 
    3.9170   -5.0451   -2.6880 C   0  0  0  0  0  0  0  0  0  0  0  0 
    2.5218    0.0080   -0.0532 C   0  0  0  0  0  0  0  0  0  0  0  0 
    2.5105   -5.0379   -0.0240 C   0  0  0  0  0  0  0  0  0  0  0  0 
    3.8443   -2.5285   -2.5845 C   0  0  0  0  0  0  0  0  0  0  0  0 
    3.5325   -1.3172   -1.9693 C   0  0  0  0  0  0  0  0  0  0  0  0 
    2.6074   -2.5269   -0.1224 C   0  0  0  0  0  0  0  0  0  0  0  0 
    3.5417   -3.7577   -1.9872 C   0  0  0  0  0  0  0  0  0  0  0  0 
    2.9038   -1.2968   -0.7205 C   0  0  0  0  0  0  0  0  0  0  0  0 
    2.9065   -3.7533   -0.7269 C   0  0  0  0  0  0  0  0  0  0  0  0 
    0.8700    1.4372    0.0525 H   0  0  0  0  0  0  0  0  0  0  0  0 
    0.3541   -0.2469   -0.1652 H   0  0  0  0  0  0  0  0  0  0  0  0 
    1.0404    0.6475   -1.5277 H   0  0  0  0  0  0  0  0  0  0  0  0 
    0.8535   -6.4587    0.1095 H   0  0  0  0  0  0  0  0  0  0  0  0 
    1.0376   -5.7269   -1.4949 H   0  0  0  0  0  0  0  0  0  0  0  0 
    0.3469   -4.7813   -0.1718 H   0  0  0  0  0  0  0  0  0  0  0  0 
    4.3781   -4.8385   -3.6589 H   0  0  0  0  0  0  0  0  0  0  0  0 
    3.0477   -5.6897   -2.8661 H   0  0  0  0  0  0  0  0  0  0  0  0 
    4.6342   -5.6354   -2.1027 H   0  0  0  0  0  0  0  0  0  0  0  0 
    2.5705   -0.1085    1.0371 H   0  0  0  0  0  0  0  0  0  0  0  0 
    3.2535    0.7829   -0.3156 H   0  0  0  0  0  0  0  0  0  0  0  0 
    3.2417   -5.8285   -0.2300 H   0  0  0  0  0  0  0  0  0  0  0  0 
    2.5342   -4.8743    1.0607 H   0  0  0  0  0  0  0  0  0  0  0  0 
    4.3419   -2.5217   -3.5521 H   0  0  0  0  0  0  0  0  0  0  0  0 
    3.7880   -0.3811   -2.4618 H   0  0  0  0  0  0  0  0  0  0  0  0 
    2.1284   -2.5330    0.8566 H   0  0  0  0  0  0  0  0  0  0  0  0 
  1 13  1  0  0  0  0 
  1  4  1  0  0  0  0 
  1 12  1  0  0  0  0 
  2 17  1  0  0  0  0 
  2  5  1  0  0  0  0 
  2 15  1  0  0  0  0 
  3 20  1  0  0  0  0 
  3  9  1  0  0  0  0 
  4 21  1  0  0  0  0 
  5 24  1  0  0  0  0 
  6  9  2  0  0  0  0 
  6  7  1  0  0  0  0 
  7 10  2  0  0  0  0 
  8 27  1  0  0  0  0 
  9 11  1  0  0  0  0 
 10  8  1  0  0  0  0 
 10  4  1  0  0  0  0 
 11  8  2  0  0  0  0 
 11  5  1  0  0  0  0 
 14  1  1  0  0  0  0 
 16  2  1  0  0  0  0 
 18  3  1  0  0  0  0 
 19  3  1  0  0  0  0 
 22  4  1  0  0  0  0 
 23  5  1  0  0  0  0 
 25  6  1  0  0  0  0 
 26  7  1  0  0  0  0 
M  END 
>  <HBA> 
0 
 
>  <HBD> 
0 
 
>  <TPSA> 
0.0 
 
>  <cid> 
33044 
 
>  <dipole> 
0.3 
 
>  <excitation_energy_1> 
5.108 
 
>  <excitation_energy_2> 
5.599 
 
>  <excitation_energy_3> 
5.654 
 
>  <excitation_energy_4> 
5.944 
 
>  <homo_energy> 
-6.052 
 
>  <homo_lumo_gap> 
6.248 
 
>  <logP> 
3.12 
 
>  <lumo_energy> 
0.196 
 
>  <melting_point> 
15.5 
 
>  <molecular_refractivity> 
50.95 
 
>  <oscillator_strength_1> 
0.0038 
 
>  <oscillator_strength_2> 
0.0614 
 
>  <oscillator_strength_3> 
0.0261 
 
>  <oscillator_strength_4> 
0.0208 
 
>  <open_babel_can_smiles> 
CCc1ccc(c(c1)CC)C 
 
>  <mulliken_charges> 
27 
1   -0.431973 
2   -0.436846 
3   -0.539453 
4   -0.339901 
5   -0.339084 
6   -0.183583 
7   -0.183914 
8   -0.246686 
9   0.128328 
10   0.185293 
11   0.128436 
12   0.141068 
13   0.14761 
14   0.148428 
15   0.142124 
16   0.149725 
17   0.149399 
18   0.153158 
19   0.159702 
20   0.160358 
21   0.140635 
22   0.140649 
23   0.140294 
24   0.141588 
25   0.116989 
26   0.116706 
27   0.110949 
 
>  <lowdin_charges> 
27 
1   -0.439548 
2   -0.439879 
3   -0.445159 
4   -0.269398 
5   -0.271753 
6   -0.165012 
7   -0.173326 
8   -0.175613 
9   -0.014256 
10   -0.004203 
11   -0.009197 
12   0.147946 
13   0.150564 
14   0.148353 
15   0.148673 
16   0.147295 
17   0.151381 
18   0.155881 
19   0.157525 
20   0.158915 
21   0.145373 
22   0.148431 
23   0.149043 
24   0.14664 
25   0.151046 
26   0.152352 
27   0.147927 
 
$$$$ 
 
