PCCDB-ID:  8086 
public computational chemistry database (PCCDB) project, http://pccdb.org 
 
 24 23  0  0  1  0  0  0  0  0999 V2000 
    4.7234   -1.3681    1.4312 C   0  0  0  0  0  0  0  0  0  0  0  0 
    0.8202    0.4841   -4.7152 C   0  0  0  0  0  0  0  0  0  0  0  0 
    3.5956   -0.9446   -0.8063 C   0  0  0  0  0  0  0  0  0  0  0  0 
    2.3117   -0.3358   -2.8276 C   0  0  0  0  0  0  0  0  0  0  0  0 
    4.3436   -0.3309    0.3830 C   0  0  1  0  0  0  0  0  0  0  0  0 
    1.8016    0.8744   -3.6182 C   0  0  2  0  0  0  0  0  0  0  0  0 
    3.1836    0.1172   -1.7348 N   0  0  0  0  0  0  0  0  0  0  0  0 
    3.5297    0.6501    1.0095 O   0  0  0  0  0  0  0  0  0  0  0  0 
    1.1446    1.7797   -2.7428 O   0  0  0  0  0  0  0  0  0  0  0  0 
    5.4064   -2.1174    1.0150 H   0  0  0  0  0  0  0  0  0  0  0  0 
    3.8280   -1.8752    1.8076 H   0  0  0  0  0  0  0  0  0  0  0  0 
    5.2177   -0.8802    2.2767 H   0  0  0  0  0  0  0  0  0  0  0  0 
    1.2975   -0.1636   -5.4593 H   0  0  0  0  0  0  0  0  0  0  0  0 
    0.4520    1.3813   -5.2219 H   0  0  0  0  0  0  0  0  0  0  0  0 
   -0.0405   -0.0418   -4.2875 H   0  0  0  0  0  0  0  0  0  0  0  0 
    2.6868   -1.4345   -0.4360 H   0  0  0  0  0  0  0  0  0  0  0  0 
    4.2167   -1.7176   -1.2922 H   0  0  0  0  0  0  0  0  0  0  0  0 
    2.8131   -1.0514   -3.5027 H   0  0  0  0  0  0  0  0  0  0  0  0 
    1.4536   -0.8502   -2.3781 H   0  0  0  0  0  0  0  0  0  0  0  0 
    5.2699    0.1389   -0.0023 H   0  0  0  0  0  0  0  0  0  0  0  0 
    2.6757    1.3699   -4.0846 H   0  0  0  0  0  0  0  0  0  0  0  0 
    4.0232    0.5320   -2.1433 H   0  0  0  0  0  0  0  0  0  0  0  0 
    3.0735    1.1029    0.2776 H   0  0  0  0  0  0  0  0  0  0  0  0 
    1.6725    1.7664   -1.9242 H   0  0  0  0  0  0  0  0  0  0  0  0 
  1 11  1  0  0  0  0 
  1 12  1  0  0  0  0 
  2 15  1  0  0  0  0 
  2  6  1  0  0  0  0 
  3 16  1  0  0  0  0 
  3  5  1  0  0  0  0 
  4 19  1  0  0  0  0 
  4  7  1  0  0  0  0 
  5 20  1  6  0  0  0 
  5  8  1  0  0  0  0 
  5  1  1  0  0  0  0 
  6 21  1  6  0  0  0 
  6  4  1  0  0  0  0 
  6  9  1  0  0  0  0 
  7  3  1  0  0  0  0 
  9 24  1  0  0  0  0 
 10  1  1  0  0  0  0 
 13  2  1  0  0  0  0 
 14  2  1  0  0  0  0 
 17  3  1  0  0  0  0 
 18  4  1  0  0  0  0 
 22  7  1  0  0  0  0 
 23  8  1  0  0  0  0 
M  END 
>  <HBA> 
3 
 
>  <HBD> 
3 
 
>  <TPSA> 
52.49 
 
>  <cid> 
8086 
 
>  <dipole> 
3.34 
 
>  <excitation_energy_1> 
5.928 
 
>  <excitation_energy_2> 
6.402 
 
>  <excitation_energy_3> 
6.578 
 
>  <excitation_energy_4> 
6.667 
 
>  <homo_energy> 
-6.8 
 
>  <homo_lumo_gap> 
8.425 
 
>  <logP> 
-0.272 
 
>  <lumo_energy> 
1.625 
 
>  <melting_point> 
37.85 
 
>  <molecular_refractivity> 
36.08 
 
>  <oscillator_strength_1> 
0.0023 
 
>  <oscillator_strength_2> 
0.0033 
 
>  <oscillator_strength_3> 
0.0036 
 
>  <oscillator_strength_4> 
0.0629 
 
>  <open_babel_can_smiles> 
C[C@H](CNC[C@@H](O)C)O 
 
>  <mulliken_charges> 
24 
1   -0.44746 
2   -0.447583 
3   -0.134441 
4   -0.134301 
5   0.147791 
6   0.147526 
7   -0.612684 
8   -0.635251 
9   -0.635095 
10   0.137018 
11   0.15245 
12   0.163219 
13   0.137094 
14   0.163349 
15   0.152438 
16   0.153343 
17   0.121666 
18   0.121662 
19   0.153341 
20   0.101542 
21   0.101576 
22   0.303907 
23   0.394473 
24   0.394419 
 
>  <lowdin_charges> 
24 
1   -0.449726 
2   -0.449645 
3   -0.224541 
4   -0.225491 
5   -0.002372 
6   -0.002808 
7   -0.366594 
8   -0.471913 
9   -0.471039 
10   0.151212 
11   0.155542 
12   0.163747 
13   0.151343 
14   0.163547 
15   0.155688 
16   0.151265 
17   0.130139 
18   0.130318 
19   0.151557 
20   0.116247 
21   0.116754 
22   0.256258 
23   0.335639 
24   0.334872 
 
$$$$ 
 
