PCCDB-ID:  68039 
public computational chemistry database (PCCDB) project, http://pccdb.org 
 
 18 18  0  0  0  0  0  0  0  0999 V2000 
    0.9812   -0.0340   -0.0771 C   0  0  0  0  0  0  0  0  0  0  0  0 
    5.2513   -2.3622   -0.0865 C   0  0  0  0  0  0  0  0  0  0  0  0 
    3.1214    1.2860   -0.0798 C   0  0  0  0  0  0  0  0  0  0  0  0 
    2.4796    0.0838   -0.0804 C   0  0  0  0  0  0  0  0  0  0  0  0 
    4.4512   -1.0887   -0.0848 C   0  0  0  0  0  0  0  0  0  0  0  0 
    4.5707    1.3587   -0.0852 C   0  0  0  0  0  0  0  0  0  0  0  0 
    5.3724    2.3647   -0.0907 N   0  0  0  0  0  0  0  0  0  0  0  0 
    3.1491   -1.1343   -0.0835 N   0  0  0  0  0  0  0  0  0  0  0  0 
    5.1554    0.0767   -0.0843 N   0  0  0  0  0  0  0  0  0  0  0  0 
    0.4936    0.9448   -0.0752 H   0  0  0  0  0  0  0  0  0  0  0  0 
    0.6503   -0.5984    0.8028 H   0  0  0  0  0  0  0  0  0  0  0  0 
    0.6466   -0.5969   -0.9565 H   0  0  0  0  0  0  0  0  0  0  0  0 
    4.5661   -3.2102   -0.0854 H   0  0  0  0  0  0  0  0  0  0  0  0 
    5.8974   -2.4221    0.7979 H   0  0  0  0  0  0  0  0  0  0  0  0 
    5.8943   -2.4218   -0.9731 H   0  0  0  0  0  0  0  0  0  0  0  0 
    2.5640    2.2174   -0.0759 H   0  0  0  0  0  0  0  0  0  0  0  0 
    4.8371    3.2345   -0.0901 H   0  0  0  0  0  0  0  0  0  0  0  0 
    6.1695    0.0712   -0.0860 H   0  0  0  0  0  0  0  0  0  0  0  0 
  1 10  1  0  0  0  0 
  1 11  1  0  0  0  0 
  2 13  1  0  0  0  0 
  2  5  1  0  0  0  0 
  2 14  1  0  0  0  0 
  3 16  1  0  0  0  0 
  4  3  2  0  0  0  0 
  4  1  1  0  0  0  0 
  5  9  1  0  0  0  0 
  5  8  2  0  0  0  0 
  6  9  1  0  0  0  0 
  6  3  1  0  0  0  0 
  7 17  1  0  0  0  0 
  7  6  2  0  0  0  0 
  8  4  1  0  0  0  0 
 12  1  1  0  0  0  0 
 15  2  1  0  0  0  0 
 18  9  1  0  0  0  0 
M  END 
>  <HBA> 
3 
 
>  <HBD> 
1 
 
>  <TPSA> 
51.8 
 
>  <cid> 
68039 
 
>  <dipole> 
1.39 
 
>  <excitation_energy_1> 
4.135 
 
>  <excitation_energy_2> 
5.052 
 
>  <excitation_energy_3> 
5.098 
 
>  <excitation_energy_4> 
5.281 
 
>  <homo_energy> 
-5.63 
 
>  <homo_lumo_gap> 
4.836 
 
>  <logP> 
1.257 
 
>  <lumo_energy> 
-0.795 
 
>  <melting_point> 
93.16 
 
>  <molecular_refractivity> 
36.37 
 
>  <oscillator_strength_1> 
0.0585 
 
>  <oscillator_strength_2> 
0.0 
 
>  <oscillator_strength_3> 
0.0001 
 
>  <oscillator_strength_4> 
0.0026 
 
>  <open_babel_can_smiles> 
Cc1nc(C)[nH]c(=N)c1 
 
>  <mulliken_charges> 
18 
1   -0.504756 
2   -0.535022 
3   -0.231889 
4   0.297628 
5   0.529251 
6   0.499187 
7   -0.68043 
8   -0.527458 
9   -0.638559 
10   0.152088 
11   0.172074 
12   0.172108 
13   0.197396 
14   0.174266 
15   0.17433 
16   0.130424 
17   0.279271 
18   0.340089 
 
>  <lowdin_charges> 
18 
1   -0.440794 
2   -0.451892 
3   -0.244165 
4   0.073541 
5   0.12063 
6   0.091821 
7   -0.465583 
8   -0.221568 
9   -0.196437 
10   0.155734 
11   0.169929 
12   0.169967 
13   0.184658 
14   0.169987 
15   0.170006 
16   0.164838 
17   0.253524 
18   0.295804 
 
$$$$ 
 
