PCCDB-ID:  56056 
public computational chemistry database (PCCDB) project, http://pccdb.org 
 
 18 18  0  0  0  0  0  0  0  0999 V2000 
    0.8120   -0.5155   -0.2147 C   0  0  0  0  0  0  0  0  0  0  0  0 
    0.3024   -1.6916    0.1816 C   0  0  0  0  0  0  0  0  0  0  0  0 
    1.3823    2.2709   -4.1952 C   0  0  0  0  0  0  0  0  0  0  0  0 
    2.2539   -0.2348   -0.3358 C   0  0  0  0  0  0  0  0  0  0  0  0 
   -1.1681   -1.9543    0.2430 C   0  0  0  0  0  0  0  0  0  0  0  0 
    2.0972    1.0199   -2.2845 C   0  0  0  0  0  0  0  0  0  0  0  0 
    0.5085    1.3787   -3.8281 N   0  0  0  0  0  0  0  0  0  0  0  0 
    2.8098    0.4912   -1.2423 N   0  0  0  0  0  0  0  0  0  0  0  0 
    0.9154    0.6570   -2.7442 N   0  0  0  0  0  0  0  0  0  0  0  0 
    3.0846   -0.7993    0.5627 O   0  0  0  0  0  0  0  0  0  0  0  0 
   -1.6554   -2.6882    1.0686 O   0  0  0  0  0  0  0  0  0  0  0  0 
   -1.9346   -1.3066   -0.6678 O   0  0  0  0  0  0  0  0  0  0  0  0 
    2.8277    2.3183   -3.2312 S   0  0  0  0  0  0  0  0  0  0  0  0 
    0.1598    0.2848   -0.5450 H   0  0  0  0  0  0  0  0  0  0  0  0 
    0.9263   -2.5241    0.4981 H   0  0  0  0  0  0  0  0  0  0  0  0 
    1.2212    2.9355   -5.0353 H   0  0  0  0  0  0  0  0  0  0  0  0 
    2.5617   -1.1808    1.2873 H   0  0  0  0  0  0  0  0  0  0  0  0 
   -1.3805   -0.9049   -1.3612 H   0  0  0  0  0  0  0  0  0  0  0  0 
  1  2  2  0  0  0  0 
  2  5  1  0  0  0  0 
  2 15  1  0  0  0  0 
  3  7  2  0  0  0  0 
  3 13  1  0  0  0  0 
  4  1  1  0  0  0  0 
  4 10  1  0  0  0  0 
  5 11  2  0  0  0  0 
  6  8  1  0  0  0  0 
  7  9  1  0  0  0  0 
  8  4  2  0  0  0  0 
  9  6  2  0  0  0  0 
 10 17  1  0  0  0  0 
 12  5  1  0  0  0  0 
 13  6  1  0  0  0  0 
 14  1  1  0  0  0  0 
 16  3  1  0  0  0  0 
 18 12  1  0  0  0  0 
M  END 
>  <HBA> 
7 
 
>  <HBD> 
2 
 
>  <TPSA> 
120.42 
 
>  <cid> 
56056 
 
>  <dipole> 
3.38 
 
>  <excitation_energy_1> 
3.576 
 
>  <excitation_energy_2> 
3.985 
 
>  <excitation_energy_3> 
4.156 
 
>  <excitation_energy_4> 
4.77 
 
>  <homo_energy> 
-7.083 
 
>  <homo_lumo_gap> 
4.318 
 
>  <logP> 
0.19 
 
>  <lumo_energy> 
-2.765 
 
>  <melting_point> 
174.46 
 
>  <molecular_refractivity> 
45.13 
 
>  <oscillator_strength_1> 
0.0547 
 
>  <oscillator_strength_2> 
0.1937 
 
>  <oscillator_strength_3> 
0.0256 
 
>  <oscillator_strength_4> 
0.005 
 
>  <open_babel_can_smiles> 
O/C(=N/c1nncs1)/C=C/C(=O)O 
 
>  <mulliken_charges> 
18 
1   -0.153839 
2   -0.213484 
3   -0.121855 
4   0.481924 
5   0.58698 
6   0.258712 
7   -0.198895 
8   -0.458877 
9   -0.326721 
10   -0.553064 
11   -0.434359 
12   -0.565434 
13   0.267417 
14   0.198554 
15   0.17931 
16   0.198148 
17   0.424223 
18   0.43126 
 
>  <lowdin_charges> 
18 
1   -0.17263 
2   -0.18236 
3   -0.249374 
4   0.170826 
5   0.19262 
6   -0.04975 
7   -0.102065 
8   -0.170189 
9   -0.164592 
10   -0.319865 
11   -0.224408 
12   -0.346406 
13   0.307768 
14   0.19143 
15   0.181823 
16   0.194143 
17   0.369856 
18   0.373173 
 
$$$$ 
 
