PCCDB-ID:  46443 
public computational chemistry database (PCCDB) project, http://pccdb.org 
 
 20 19  0  0  0  0  0  0  0  0999 V2000 
    1.0585   -0.4484    0.0045 C   0  0  0  0  0  0  0  0  0  0  0  0 
   -0.3735    0.0823   -0.2386 C   0  0  0  0  0  0  0  0  0  0  0  0 
    2.2047    0.4277   -0.5145 C   0  0  0  0  0  0  0  0  0  0  0  0 
   -0.6705    0.3512   -1.7115 C   0  0  0  0  0  0  0  0  0  0  0  0 
    3.4460    2.9325   -0.7058 C   0  0  0  0  0  0  0  0  0  0  0  0 
    4.1273    2.2686   -1.5521 N   0  0  0  0  0  0  0  0  0  0  0  0 
    3.5343    4.2771   -0.3821 N   0  0  0  0  0  0  0  0  0  0  0  0 
   -1.2284   -0.4366   -2.4353 O   0  0  0  0  0  0  0  0  0  0  0  0 
   -0.2402    1.5444   -2.1978 O   0  0  0  0  0  0  0  0  0  0  0  0 
    2.1045    2.1265    0.1955 S   0  0  0  0  0  0  0  0  0  0  0  0 
    1.1575   -1.4251   -0.4850 H   0  0  0  0  0  0  0  0  0  0  0  0 
    1.1802   -0.6214    1.0803 H   0  0  0  0  0  0  0  0  0  0  0  0 
   -0.5452    0.9907    0.3520 H   0  0  0  0  0  0  0  0  0  0  0  0 
   -1.0898   -0.6716    0.0970 H   0  0  0  0  0  0  0  0  0  0  0  0 
    2.1877    0.5339   -1.6011 H   0  0  0  0  0  0  0  0  0  0  0  0 
    3.1729    0.0049   -0.2394 H   0  0  0  0  0  0  0  0  0  0  0  0 
    4.8462    2.8460   -1.9980 H   0  0  0  0  0  0  0  0  0  0  0  0 
    4.4104    4.7274   -0.6180 H   0  0  0  0  0  0  0  0  0  0  0  0 
    3.1633    4.5667    0.5145 H   0  0  0  0  0  0  0  0  0  0  0  0 
    0.2197    2.0532   -1.5011 H   0  0  0  0  0  0  0  0  0  0  0  0 
  1 12  1  0  0  0  0 
  2  1  1  0  0  0  0 
  2 14  1  0  0  0  0 
  2 13  1  0  0  0  0 
  3 16  1  0  0  0  0 
  3  1  1  0  0  0  0 
  3 10  1  0  0  0  0 
  4  2  1  0  0  0  0 
  5  7  2  0  0  0  0 
  5 10  1  0  0  0  0 
  6  5  1  0  0  0  0 
  7 19  1  0  0  0  0 
  8  4  2  0  0  0  0 
  9  4  1  0  0  0  0 
  9 20  1  0  0  0  0 
 11  1  1  0  0  0  0 
 15  3  1  0  0  0  0 
 17  6  1  0  0  0  0 
 18  7  1  0  0  0  0 
M  RAD  1   6   2 
M  END 
>  <HBA> 
5 
 
>  <HBD> 
3 
 
>  <TPSA> 
112.47 
 
>  <cid> 
46443 
 
>  <dipole> 
6.6 
 
>  <excitation_energy_1> 
5.442 
 
>  <excitation_energy_2> 
5.536 
 
>  <excitation_energy_3> 
5.674 
 
>  <excitation_energy_4> 
5.967 
 
>  <homo_energy> 
-6.827 
 
>  <homo_lumo_gap> 
6.855 
 
>  <logP> 
1.278 
 
>  <lumo_energy> 
0.027 
 
>  <melting_point> 
145.78 
 
>  <molecular_refractivity> 
41.81 
 
>  <oscillator_strength_1> 
0.0008 
 
>  <oscillator_strength_2> 
0.0011 
 
>  <oscillator_strength_3> 
0.0076 
 
>  <oscillator_strength_4> 
0.0004 
 
>  <open_babel_can_smiles> 
OC(=O)CCCSC(=[NH2])[NH] 
 
>  <mulliken_charges> 
20 
1   -0.283144 
2   -0.381215 
3   -0.415823 
4   0.581543 
5   0.282043 
6   -0.596851 
7   -0.727009 
8   -0.44231 
9   -0.574544 
10   0.064519 
11   0.176988 
12   0.162381 
13   0.164801 
14   0.180791 
15   0.218958 
16   0.200456 
17   0.282645 
18   0.331889 
19   0.343202 
20   0.430678 
 
>  <lowdin_charges> 
20 
1   -0.270667 
2   -0.321592 
3   -0.364136 
4   0.194006 
5   -0.002582 
6   -0.437317 
7   -0.485554 
8   -0.246704 
9   -0.365364 
10   0.098754 
11   0.166418 
12   0.155307 
13   0.159442 
14   0.176685 
15   0.179785 
16   0.177325 
17   0.258111 
18   0.283972 
19   0.290305 
20   0.353807 
 
$$$$ 
 
