PCCDB-ID:  72757 
public computational chemistry database (PCCDB) project, http://pccdb.org 
 
 18 19  0  0  0  0  0  0  0  0999 V2000 
   -2.3810   -0.6957    0.1234 C   0  0  0  0  0  0  0  0  0  0  0  0 
   -2.3748    0.6978    0.0168 C   0  0  0  0  0  0  0  0  0  0  0  0 
   -1.1804   -1.4042    0.0805 C   0  0  0  0  0  0  0  0  0  0  0  0 
   -1.1686    1.3899   -0.1134 C   0  0  0  0  0  0  0  0  0  0  0  0 
    2.3418    0.7016    0.2601 C   0  0  0  0  0  0  0  0  0  0  0  0 
    0.0373   -0.7294   -0.0520 C   0  0  0  0  0  0  0  0  0  0  0  0 
    0.0242    0.6751   -0.1334 C   0  0  0  0  0  0  0  0  0  0  0  0 
    2.3130   -0.7850   -0.0490 C   0  0  0  0  0  0  0  0  0  0  0  0 
    1.2387   -1.4551   -0.1688 N   0  0  0  0  0  0  0  0  0  0  0  0 
    3.4999   -1.4340   -0.1469 O   0  0  0  0  0  0  0  0  0  0  0  0 
    1.2109    1.3587   -0.2958 O   0  0  0  0  0  0  0  0  0  0  0  0 
   -3.3207   -1.2302    0.2278 H   0  0  0  0  0  0  0  0  0  0  0  0 
   -3.3090    1.2518    0.0407 H   0  0  0  0  0  0  0  0  0  0  0  0 
   -1.1590   -2.4883    0.1366 H   0  0  0  0  0  0  0  0  0  0  0  0 
   -1.1378    2.4720   -0.1965 H   0  0  0  0  0  0  0  0  0  0  0  0 
    3.2190    1.1909   -0.1772 H   0  0  0  0  0  0  0  0  0  0  0  0 
    2.3773    0.8492    1.3539 H   0  0  0  0  0  0  0  0  0  0  0  0 
    4.2290   -0.7970   -0.0920 H   0  0  0  0  0  0  0  0  0  0  0  0 
  1 12  1  0  0  0  0 
  2 13  1  0  0  0  0 
  2  1  2  0  0  0  0 
  3  1  1  0  0  0  0 
  3 14  1  0  0  0  0 
  4  2  1  0  0  0  0 
  5 17  1  0  0  0  0 
  6  3  2  0  0  0  0 
  7  4  2  0  0  0  0 
  7  6  1  0  0  0  0 
  8  5  1  0  0  0  0 
  9  6  1  0  0  0  0 
  9  8  2  0  0  0  0 
 10 18  1  0  0  0  0 
 10  8  1  0  0  0  0 
 11  7  1  0  0  0  0 
 11  5  1  0  0  0  0 
 15  4  1  0  0  0  0 
 16  5  1  0  0  0  0 
M  END 
>  <HBA> 
3 
 
>  <HBD> 
1 
 
>  <TPSA> 
38.33 
 
>  <cid> 
72757 
 
>  <dipole> 
3.08 
 
>  <excitation_energy_1> 
4.398 
 
>  <excitation_energy_2> 
4.686 
 
>  <excitation_energy_3> 
4.88 
 
>  <excitation_energy_4> 
5.187 
 
>  <homo_energy> 
-5.761 
 
>  <homo_lumo_gap> 
5.064 
 
>  <logP> 
1.155 
 
>  <lumo_energy> 
-0.697 
 
>  <melting_point> 
87.95 
 
>  <molecular_refractivity> 
43.26 
 
>  <oscillator_strength_1> 
0.087 
 
>  <oscillator_strength_2> 
0.0089 
 
>  <oscillator_strength_3> 
0.0709 
 
>  <oscillator_strength_4> 
0.0089 
 
>  <open_babel_can_smiles> 
OC1=Nc2c(OC1)cccc2 
 
>  <mulliken_charges> 
18 
1   -0.136686 
2   -0.136865 
3   -0.176082 
4   -0.186385 
5   -0.115103 
6   0.242273 
7   0.33455 
8   0.475461 
9   -0.488564 
10   -0.572935 
11   -0.517956 
12   0.128677 
13   0.130264 
14   0.142553 
15   0.138136 
16   0.157108 
17   0.16954 
18   0.412014 
 
>  <lowdin_charges> 
18 
1   -0.169684 
2   -0.154797 
3   -0.151313 
4   -0.178593 
5   -0.154385 
6   0.006677 
7   0.076209 
8   0.116432 
9   -0.166795 
10   -0.343759 
11   -0.202558 
12   0.158999 
13   0.159383 
14   0.166291 
15   0.164484 
16   0.159884 
17   0.152119 
18   0.361407 
 
$$$$ 
 
