PCCDB-ID:  57568 
public computational chemistry database (PCCDB) project, http://pccdb.org 
 
 36 37  0  0  1  0  0  0  0  0999 V2000 
    1.9438   -2.5527   -1.5483 C   0  0  0  0  0  0  0  0  0  0  0  0 
    5.6276   -3.5977   -2.3913 C   0  0  0  0  0  0  0  0  0  0  0  0 
    6.2587   -2.1986   -2.4277 C   0  0  0  0  0  0  0  0  0  0  0  0 
    4.0981   -3.5273   -2.5150 C   0  0  0  0  0  0  0  0  0  0  0  0 
    5.6688   -1.2944   -1.3339 C   0  0  0  0  0  0  0  0  0  0  0  0 
    2.8215    1.2040   -3.7864 C   0  0  0  0  0  0  0  0  0  0  0  0 
    2.8604    1.4197   -5.2981 C   0  0  0  0  0  0  0  0  0  0  0  0 
    2.4133    3.2217   -6.9380 C   0  0  0  0  0  0  0  0  0  0  0  0 
    2.8340    3.8737   -5.6657 C   0  0  0  0  0  0  0  0  0  0  0  0 
    3.4688   -2.6472   -1.4179 C   0  0  1  0  0  0  0  0  0  0  0  0 
    4.1322   -1.2598   -1.2427 C   0  0  2  0  0  0  0  0  0  0  0  0 
    3.5316   -0.0688   -3.3591 C   0  0  0  0  0  0  0  0  0  0  0  0 
    2.0925    2.6123   -5.6506 N   0  0  0  0  0  0  0  0  0  0  0  0 
    4.0204   -0.8658   -4.1344 O   0  0  0  0  0  0  0  0  0  0  0  0 
    3.5237   -0.1686   -2.0191 O   0  0  0  0  0  0  0  0  0  0  0  0 
    1.4953   -3.5514   -1.4991 H   0  0  0  0  0  0  0  0  0  0  0  0 
    1.6532   -2.1067   -2.5055 H   0  0  0  0  0  0  0  0  0  0  0  0 
    1.5048   -1.9455   -0.7478 H   0  0  0  0  0  0  0  0  0  0  0  0 
    5.8974   -4.0970   -1.4474 H   0  0  0  0  0  0  0  0  0  0  0  0 
    6.0391   -4.2172   -3.1980 H   0  0  0  0  0  0  0  0  0  0  0  0 
    6.0938   -1.7524   -3.4115 H   0  0  0  0  0  0  0  0  0  0  0  0 
    7.3440   -2.2701   -2.2772 H   0  0  0  0  0  0  0  0  0  0  0  0 
    3.6687   -4.5354   -2.4367 H   0  0  0  0  0  0  0  0  0  0  0  0 
    3.8313   -3.1356   -3.5006 H   0  0  0  0  0  0  0  0  0  0  0  0 
    6.0393   -0.2659   -1.4226 H   0  0  0  0  0  0  0  0  0  0  0  0 
    6.0193   -1.6608   -0.3577 H   0  0  0  0  0  0  0  0  0  0  0  0 
    1.7814    1.1595   -3.4408 H   0  0  0  0  0  0  0  0  0  0  0  0 
    3.2737    2.0511   -3.2558 H   0  0  0  0  0  0  0  0  0  0  0  0 
    2.4099    0.5599   -5.8049 H   0  0  0  0  0  0  0  0  0  0  0  0 
    3.9092    1.4764   -5.6402 H   0  0  0  0  0  0  0  0  0  0  0  0 
    3.1957    2.7608   -7.5427 H   0  0  0  0  0  0  0  0  0  0  0  0 
    1.5664    3.6037   -7.5041 H   0  0  0  0  0  0  0  0  0  0  0  0 
    2.3024    4.7428   -5.2842 H   0  0  0  0  0  0  0  0  0  0  0  0 
    3.8976    3.8460   -5.4227 H   0  0  0  0  0  0  0  0  0  0  0  0 
    3.6856   -3.1464   -0.4588 H   0  0  0  0  0  0  0  0  0  0  0  0 
    3.8700   -0.9098   -0.2396 H   0  0  0  0  0  0  0  0  0  0  0  0 
  1 16  1  0  0  0  0 
  1 10  1  0  0  0  0 
  1 18  1  0  0  0  0 
  2 19  1  0  0  0  0 
  3  2  1  0  0  0  0 
  3 22  1  0  0  0  0 
  3  5  1  0  0  0  0 
  4 23  1  0  0  0  0 
  4  2  1  0  0  0  0 
  4 10  1  0  0  0  0 
  5 11  1  0  0  0  0 
  5 26  1  0  0  0  0 
  6 27  1  0  0  0  0 
  6 12  1  0  0  0  0 
  6 28  1  0  0  0  0 
  7  6  1  0  0  0  0 
  8  9  1  0  0  0  0 
  8 13  1  0  0  0  0 
  9 13  1  0  0  0  0 
  9 34  1  0  0  0  0 
  9 33  1  0  0  0  0 
 10 11  1  0  0  0  0 
 10 35  1  1  0  0  0 
 11 36  1  1  0  0  0 
 12 15  1  0  0  0  0 
 13  7  1  0  0  0  0 
 14 12  2  0  0  0  0 
 15 11  1  0  0  0  0 
 17  1  1  0  0  0  0 
 20  2  1  0  0  0  0 
 21  3  1  0  0  0  0 
 24  4  1  0  0  0  0 
 25  5  1  0  0  0  0 
 29  7  1  0  0  0  0 
 30  7  1  0  0  0  0 
 31  8  1  0  0  0  0 
 32  8  1  0  0  0  0 
M  END 
>  <HBA> 
3 
 
>  <HBD> 
0 
 
>  <TPSA> 
29.31 
 
>  <cid> 
57568 
 
>  <dipole> 
1.45 
 
>  <excitation_energy_1> 
5.669 
 
>  <excitation_energy_2> 
5.907 
 
>  <excitation_energy_3> 
6.01 
 
>  <excitation_energy_4> 
6.191 
 
>  <homo_energy> 
-6.34 
 
>  <homo_lumo_gap> 
6.713 
 
>  <logP> 
1.752 
 
>  <lumo_energy> 
0.373 
 
>  <melting_point> 
15.76 
 
>  <molecular_refractivity> 
63.67 
 
>  <oscillator_strength_1> 
0.0007 
 
>  <oscillator_strength_2> 
0.0075 
 
>  <oscillator_strength_3> 
0.0096 
 
>  <oscillator_strength_4> 
0.0192 
 
>  <open_babel_can_smiles> 
O=C(O[C@@H]1CCCC[C@@H]1C)CCN1CC1 
 
>  <mulliken_charges> 
36 
1   -0.449294 
2   -0.266272 
3   -0.258733 
4   -0.258912 
5   -0.291685 
6   -0.361109 
7   -0.119328 
8   -0.191488 
9   -0.197038 
10   -0.103864 
11   0.139587 
12   0.62789 
13   -0.357709 
14   -0.481564 
15   -0.489336 
16   0.143691 
17   0.152399 
18   0.141236 
19   0.117632 
20   0.13219 
21   0.170129 
22   0.123084 
23   0.120664 
24   0.168512 
25   0.142729 
26   0.135366 
27   0.186597 
28   0.170997 
29   0.160981 
30   0.124502 
31   0.14665 
32   0.157244 
33   0.156956 
34   0.142944 
35   0.124866 
36   0.139486 
 
>  <lowdin_charges> 
36 
1   -0.44386 
2   -0.277472 
3   -0.28332 
4   -0.286025 
5   -0.285838 
6   -0.305515 
7   -0.194889 
8   -0.244371 
9   -0.24516 
10   -0.134337 
11   0.007314 
12   0.202566 
13   -0.194351 
14   -0.272163 
15   -0.199777 
16   0.150717 
17   0.15213 
18   0.150365 
19   0.131216 
20   0.146654 
21   0.158301 
22   0.138314 
23   0.138512 
24   0.15801 
25   0.150922 
26   0.147268 
27   0.175767 
28   0.169182 
29   0.156524 
30   0.126698 
31   0.150026 
32   0.159828 
33   0.159157 
34   0.144501 
35   0.142427 
36   0.150677 
 
$$$$ 
 
