PCCDB-ID:  14538 
public computational chemistry database (PCCDB) project, http://pccdb.org 
 
 18 19  0  0  1  0  0  0  0  0999 V2000 
   -1.4883   -0.0196    0.0476 C   0  0  0  0  0  0  0  0  0  0  0  0 
   -0.7895    1.1876    0.1218 C   0  0  0  0  0  0  0  0  0  0  0  0 
   -0.7910   -1.2174   -0.1136 C   0  0  0  0  0  0  0  0  0  0  0  0 
    0.6013    1.1949    0.0342 C   0  0  0  0  0  0  0  0  0  0  0  0 
    0.6024   -1.2156   -0.1954 C   0  0  0  0  0  0  0  0  0  0  0  0 
    1.3006   -0.0071   -0.1242 C   0  0  0  0  0  0  0  0  0  0  0  0 
    2.8104    0.0344   -0.1712 C   0  0  1  0  0  0  0  0  0  0  0  0 
    4.2201   -1.6345    0.3661 C   0  0  0  0  0  0  0  0  0  0  0  0 
    3.3780    0.2509    1.2014 N   0  0  0  0  0  0  0  0  0  0  0  0 
    4.1502   -0.6734    1.4955 N   0  0  0  0  0  0  0  0  0  0  0  0 
    4.8763   -2.6276    0.3249 O   0  0  0  0  0  0  0  0  0  0  0  0 
    3.3987   -1.1697   -0.6200 O   0  0  0  0  0  0  0  0  0  0  0  0 
   -2.5727   -0.0251    0.1118 H   0  0  0  0  0  0  0  0  0  0  0  0 
   -1.3266    2.1237    0.2447 H   0  0  0  0  0  0  0  0  0  0  0  0 
   -1.3302   -2.1583   -0.1771 H   0  0  0  0  0  0  0  0  0  0  0  0 
    1.1451    2.1344    0.0940 H   0  0  0  0  0  0  0  0  0  0  0  0 
    1.1426   -2.1462   -0.3332 H   0  0  0  0  0  0  0  0  0  0  0  0 
    3.1739    0.8664   -0.7866 H   0  0  0  0  0  0  0  0  0  0  0  0 
  1 13  1  0  0  0  0 
  1  2  1  0  0  0  0 
  2 14  1  0  0  0  0 
  3  1  2  0  0  0  0 
  4 16  1  0  0  0  0 
  4  2  2  0  0  0  0 
  5  6  2  0  0  0  0 
  5  3  1  0  0  0  0 
  6  4  1  0  0  0  0 
  7 18  1  6  0  0  0 
  7  6  1  0  0  0  0 
  7  9  1  0  0  0  0 
  8 10  2  0  0  0  0 
  9 10  1  0  0  0  0 
 11  8  2  0  0  0  0 
 12  7  1  0  0  0  0 
 12  8  1  0  0  0  0 
 15  3  1  0  0  0  0 
 17  5  1  0  0  0  0 
M  RAD  1   9   2 
M  END 
>  <HBA> 
4 
 
>  <HBD> 
0 
 
>  <TPSA> 
51.02 
 
>  <cid> 
14538 
 
>  <dipole> 
4.47 
 
>  <excitation_energy_1> 
3.143 
 
>  <excitation_energy_2> 
3.812 
 
>  <excitation_energy_3> 
3.924 
 
>  <excitation_energy_4> 
5.013 
 
>  <homo_energy> 
-7.143 
 
>  <homo_lumo_gap> 
4.403 
 
>  <logP> 
1.159 
 
>  <lumo_energy> 
-2.74 
 
>  <melting_point> 
67.36 
 
>  <molecular_refractivity> 
47.28 
 
>  <oscillator_strength_1> 
0.0015 
 
>  <oscillator_strength_2> 
0.0027 
 
>  <oscillator_strength_3> 
0.0112 
 
>  <oscillator_strength_4> 
0.0006 
 
>  <open_babel_can_smiles> 
O=[C]1=N[N][C@@H](O1)c1ccccc1 
 
>  <mulliken_charges> 
18 
1   -0.120573 
2   -0.132514 
3   -0.129744 
4   -0.15875 
5   -0.172961 
6   0.147987 
7   0.100802 
8   0.710301 
9   -0.116953 
10   -0.203372 
11   -0.409543 
12   -0.441278 
13   0.141438 
14   0.142804 
15   0.143806 
16   0.142781 
17   0.158441 
18   0.197328 
 
>  <lowdin_charges> 
18 
1   -0.143119 
2   -0.147691 
3   -0.147226 
4   -0.152624 
5   -0.154794 
6   -0.024771 
7   0.01986 
8   0.186587 
9   -0.036529 
10   -0.072298 
11   -0.174808 
12   -0.157817 
13   0.161682 
14   0.164568 
15   0.164973 
16   0.16458 
17   0.171629 
18   0.177797 
 
$$$$ 
 
