PCCDB-ID:  13152 
public computational chemistry database (PCCDB) project, http://pccdb.org 
 
 28 27  0  0  0  0  0  0  0  0999 V2000 
    2.0998    0.0717   -1.5832 C   0  0  0  0  0  0  0  0  0  0  0  0 
    0.5957    1.1520    0.1028 C   0  0  0  0  0  0  0  0  0  0  0  0 
   -0.2101   -0.8209   -1.2628 C   0  0  0  0  0  0  0  0  0  0  0  0 
    1.7214   -2.2909    2.7921 C   0  0  0  0  0  0  0  0  0  0  0  0 
   -0.4542   -1.2340    2.1738 C   0  0  0  0  0  0  0  0  0  0  0  0 
    0.3803   -3.2657    0.9162 C   0  0  0  0  0  0  0  0  0  0  0  0 
    1.6200   -1.0967    0.5862 C   0  0  0  0  0  0  0  0  0  0  0  0 
    1.0011   -0.2018   -0.5352 C   0  0  0  0  0  0  0  0  0  0  0  0 
    0.7952   -1.9417    1.6085 C   0  0  0  0  0  0  0  0  0  0  0  0 
    2.8359   -1.1372    0.6702 O   0  0  0  0  0  0  0  0  0  0  0  0 
    1.7032    0.7238   -2.3702 H   0  0  0  0  0  0  0  0  0  0  0  0 
    2.4426   -0.8581   -2.0498 H   0  0  0  0  0  0  0  0  0  0  0  0 
    2.9703    0.5530   -1.1330 H   0  0  0  0  0  0  0  0  0  0  0  0 
    0.2985    1.8513   -0.6881 H   0  0  0  0  0  0  0  0  0  0  0  0 
    1.4388    1.5974    0.6428 H   0  0  0  0  0  0  0  0  0  0  0  0 
   -0.2450    1.0589    0.7950 H   0  0  0  0  0  0  0  0  0  0  0  0 
   -0.5485   -0.1301   -2.0445 H   0  0  0  0  0  0  0  0  0  0  0  0 
   -1.0634   -1.0069   -0.6062 H   0  0  0  0  0  0  0  0  0  0  0  0 
    0.0556   -1.7634   -1.7540 H   0  0  0  0  0  0  0  0  0  0  0  0 
    1.1756   -2.9077    3.5157 H   0  0  0  0  0  0  0  0  0  0  0  0 
    2.0676   -1.3871    3.3047 H   0  0  0  0  0  0  0  0  0  0  0  0 
    2.6056   -2.8383    2.4594 H   0  0  0  0  0  0  0  0  0  0  0  0 
   -0.9477   -1.9005    2.8912 H   0  0  0  0  0  0  0  0  0  0  0  0 
   -1.1926   -0.9786    1.4100 H   0  0  0  0  0  0  0  0  0  0  0  0 
   -0.1867   -0.3173    2.7109 H   0  0  0  0  0  0  0  0  0  0  0  0 
   -0.0697   -3.9362    1.6583 H   0  0  0  0  0  0  0  0  0  0  0  0 
    1.2528   -3.7753    0.4919 H   0  0  0  0  0  0  0  0  0  0  0  0 
   -0.3513   -3.1159    0.1182 H   0  0  0  0  0  0  0  0  0  0  0  0 
  1 13  1  0  0  0  0 
  1  8  1  0  0  0  0 
  2 15  1  0  0  0  0 
  2 16  1  0  0  0  0 
  3 18  1  0  0  0  0 
  3  8  1  0  0  0  0 
  4 21  1  0  0  0  0 
  4 20  1  0  0  0  0 
  5 25  1  0  0  0  0 
  5 23  1  0  0  0  0 
  6  9  1  0  0  0  0 
  6 26  1  0  0  0  0 
  7 10  2  0  0  0  0 
  7  9  1  0  0  0  0 
  8  2  1  0  0  0  0 
  8  7  1  0  0  0  0 
  9  5  1  0  0  0  0 
  9  4  1  0  0  0  0 
 11  1  1  0  0  0  0 
 12  1  1  0  0  0  0 
 14  2  1  0  0  0  0 
 17  3  1  0  0  0  0 
 19  3  1  0  0  0  0 
 22  4  1  0  0  0  0 
 24  5  1  0  0  0  0 
 27  6  1  0  0  0  0 
 28  6  1  0  0  0  0 
M  END 
>  <HBA> 
1 
 
>  <HBD> 
0 
 
>  <TPSA> 
17.07 
 
>  <cid> 
13152 
 
>  <dipole> 
2.44 
 
>  <excitation_energy_1> 
4.15 
 
>  <excitation_energy_2> 
5.89 
 
>  <excitation_energy_3> 
6.374 
 
>  <excitation_energy_4> 
6.497 
 
>  <homo_energy> 
-6.31 
 
>  <homo_lumo_gap> 
5.995 
 
>  <logP> 
2.648 
 
>  <lumo_energy> 
-0.316 
 
>  <melting_point> 
30.21 
 
>  <molecular_refractivity> 
45.06 
 
>  <oscillator_strength_1> 
0.0 
 
>  <oscillator_strength_2> 
0.0074 
 
>  <oscillator_strength_3> 
0.0111 
 
>  <oscillator_strength_4> 
0.0 
 
>  <open_babel_can_smiles> 
O=C(C(C)(C)C)C(C)(C)C 
 
>  <mulliken_charges> 
28 
1   -0.429956 
2   -0.457954 
3   -0.461774 
4   -0.429635 
5   -0.461482 
6   -0.458002 
7   0.454439 
8   0.008047 
9   0.0068 
10   -0.453412 
11   0.129367 
12   0.14401 
13   0.164042 
14   0.148656 
15   0.157152 
16   0.150877 
17   0.146439 
18   0.149598 
19   0.151296 
20   0.129354 
21   0.144247 
22   0.163686 
23   0.146484 
24   0.149672 
25   0.15128 
26   0.148723 
27   0.156975 
28   0.15107 
 
>  <lowdin_charges> 
28 
1   -0.439507 
2   -0.443883 
3   -0.447855 
4   -0.439779 
5   -0.448719 
6   -0.444218 
7   0.163 
8   -0.012538 
9   -0.012589 
10   -0.232905 
11   0.144365 
12   0.151696 
13   0.162068 
14   0.154175 
15   0.157152 
16   0.153598 
17   0.153946 
18   0.149501 
19   0.152214 
20   0.144689 
21   0.15203 
22   0.161737 
23   0.1543 
24   0.149862 
25   0.152427 
26   0.15456 
27   0.156859 
28   0.153814 
 
$$$$ 
 
