PCCDB-ID:  25799 
public computational chemistry database (PCCDB) project, http://pccdb.org 
 
 17 16  0  0  0  0  0  0  0  0999 V2000 
    0.9082    0.0783   -0.0884 C   0  0  0  0  0  0  0  0  0  0  0  0 
    2.8992    1.1707    0.7015 C   0  0  0  0  0  0  0  0  0  0  0  0 
    2.6336   -1.2103    1.0428 C   0  0  0  0  0  0  0  0  0  0  0  0 
    2.4876   -2.5599    0.3319 C   0  0  0  0  0  0  0  0  0  0  0  0 
    2.3343   -0.0683    0.1803 N   0  0  0  0  0  0  0  0  0  0  0  0 
    3.6024   -2.7237   -1.1255 S   0  0  0  0  0  0  0  0  0  0  0  0 
    0.7523    0.9053   -0.7890 H   0  0  0  0  0  0  0  0  0  0  0  0 
    0.3172    0.2855    0.8253 H   0  0  0  0  0  0  0  0  0  0  0  0 
    0.5096   -0.8283   -0.5530 H   0  0  0  0  0  0  0  0  0  0  0  0 
    2.7174    1.9832   -0.0103 H   0  0  0  0  0  0  0  0  0  0  0  0 
    3.9816    1.0616    0.8240 H   0  0  0  0  0  0  0  0  0  0  0  0 
    2.4690    1.4709    1.6769 H   0  0  0  0  0  0  0  0  0  0  0  0 
    3.6691   -1.1106    1.3849 H   0  0  0  0  0  0  0  0  0  0  0  0 
    1.9898   -1.2192    1.9461 H   0  0  0  0  0  0  0  0  0  0  0  0 
    1.4536   -2.7420    0.0240 H   0  0  0  0  0  0  0  0  0  0  0  0 
    2.7669   -3.3620    1.0213 H   0  0  0  0  0  0  0  0  0  0  0  0 
    3.3951   -1.4538   -1.5426 H   0  0  0  0  0  0  0  0  0  0  0  0 
  1  5  1  0  0  0  0 
  1  8  1  0  0  0  0 
  2 11  1  0  0  0  0 
  2 12  1  0  0  0  0 
  3 13  1  0  0  0  0 
  3 14  1  0  0  0  0 
  4 16  1  0  0  0  0 
  4  3  1  0  0  0  0 
  5  2  1  0  0  0  0 
  5  3  1  0  0  0  0 
  6  4  1  0  0  0  0 
  7  1  1  0  0  0  0 
  9  1  1  0  0  0  0 
 10  2  1  0  0  0  0 
 15  4  1  0  0  0  0 
 17  6  1  0  0  0  0 
M  END 
>  <HBA> 
2 
 
>  <HBD> 
1 
 
>  <TPSA> 
42.04 
 
>  <cid> 
25799 
 
>  <dipole> 
2.73 
 
>  <excitation_energy_1> 
5.319 
 
>  <excitation_energy_2> 
5.499 
 
>  <excitation_energy_3> 
5.717 
 
>  <excitation_energy_4> 
5.832 
 
>  <homo_energy> 
-6.0 
 
>  <homo_lumo_gap> 
7.105 
 
>  <logP> 
0.478 
 
>  <lumo_energy> 
1.105 
 
>  <melting_point> 
-2.34 
 
>  <molecular_refractivity> 
32.17 
 
>  <oscillator_strength_1> 
0.0105 
 
>  <oscillator_strength_2> 
0.0222 
 
>  <oscillator_strength_3> 
0.04 
 
>  <oscillator_strength_4> 
0.0197 
 
>  <open_babel_can_smiles> 
SCCN(C)C 
 
>  <mulliken_charges> 
17 
1   -0.305027 
2   -0.297104 
3   -0.116713 
4   -0.40927 
5   -0.369132 
6   -0.114864 
7   0.154234 
8   0.122598 
9   0.157402 
10   0.151425 
11   0.156735 
12   0.122081 
13   0.156961 
14   0.120202 
15   0.174568 
16   0.176521 
17   0.119383 
 
>  <lowdin_charges> 
17 
1   -0.361116 
2   -0.354253 
3   -0.202598 
4   -0.376373 
5   -0.183521 
6   -0.112544 
7   0.154023 
8   0.124072 
9   0.153699 
10   0.152277 
11   0.151687 
12   0.122934 
13   0.154084 
14   0.125399 
15   0.154477 
16   0.170434 
17   0.127318 
 
$$$$ 
 
