PCCDB-ID:  28023 
public computational chemistry database (PCCDB) project, http://pccdb.org 
 
 29 28  0  0  0  0  0  0  0  0999 V2000 
    0.8807    0.7839    2.1564 C   0  0  0  0  0  0  0  0  0  0  0  0 
    4.6786   -1.7948    3.4116 C   0  0  0  0  0  0  0  0  0  0  0  0 
    6.7669   -0.5438    2.8089 C   0  0  0  0  0  0  0  0  0  0  0  0 
    5.0628   -1.3116    0.3108 C   0  0  0  0  0  0  0  0  0  0  0  0 
    5.1678    1.1349    0.8149 C   0  0  0  0  0  0  0  0  0  0  0  0 
    2.4071    0.7960    2.3035 C   0  0  0  0  0  0  0  0  0  0  0  0 
    3.0888   -0.1934    1.3461 C   0  0  0  0  0  0  0  0  0  0  0  0 
    5.2277   -0.5143    2.7558 C   0  0  0  0  0  0  0  0  0  0  0  0 
    4.6451   -0.2266    1.3265 C   0  0  0  0  0  0  0  0  0  0  0  0 
    0.4060    1.4860    2.8515 H   0  0  0  0  0  0  0  0  0  0  0  0 
    0.4705   -0.2134    2.3586 H   0  0  0  0  0  0  0  0  0  0  0  0 
    0.5781    1.0642    1.1399 H   0  0  0  0  0  0  0  0  0  0  0  0 
    5.0874   -1.9032    4.4233 H   0  0  0  0  0  0  0  0  0  0  0  0 
    4.9634   -2.6933    2.8513 H   0  0  0  0  0  0  0  0  0  0  0  0 
    3.5878   -1.7878    3.5002 H   0  0  0  0  0  0  0  0  0  0  0  0 
    7.1025   -0.6685    3.8453 H   0  0  0  0  0  0  0  0  0  0  0  0 
    7.2182    0.3782    2.4296 H   0  0  0  0  0  0  0  0  0  0  0  0 
    7.1788   -1.3818    2.2343 H   0  0  0  0  0  0  0  0  0  0  0  0 
    4.6508   -1.0826   -0.6798 H   0  0  0  0  0  0  0  0  0  0  0  0 
    4.6929   -2.3032    0.5954 H   0  0  0  0  0  0  0  0  0  0  0  0 
    6.1510   -1.3755    0.2036 H   0  0  0  0  0  0  0  0  0  0  0  0 
    4.6528    1.4198   -0.1109 H   0  0  0  0  0  0  0  0  0  0  0  0 
    6.2390    1.1001    0.5912 H   0  0  0  0  0  0  0  0  0  0  0  0 
    5.0086    1.9369    1.5450 H   0  0  0  0  0  0  0  0  0  0  0  0 
    2.6669    0.5573    3.3428 H   0  0  0  0  0  0  0  0  0  0  0  0 
    2.7766    1.8134    2.1215 H   0  0  0  0  0  0  0  0  0  0  0  0 
    2.7536    0.0335    0.3230 H   0  0  0  0  0  0  0  0  0  0  0  0 
    2.7087   -1.2021    1.5585 H   0  0  0  0  0  0  0  0  0  0  0  0 
    4.9114    0.3289    3.3871 H   0  0  0  0  0  0  0  0  0  0  0  0 
  1  6  1  0  0  0  0 
  1 11  1  0  0  0  0 
  1 10  1  0  0  0  0 
  2 15  1  0  0  0  0 
  2 13  1  0  0  0  0 
  3 16  1  0  0  0  0 
  4 20  1  0  0  0  0 
  4  9  1  0  0  0  0 
  5  9  1  0  0  0  0 
  5 24  1  0  0  0  0 
  6 25  1  0  0  0  0 
  7 28  1  0  0  0  0 
  7  6  1  0  0  0  0 
  8  3  1  0  0  0  0 
  8 29  1  0  0  0  0 
  8  2  1  0  0  0  0 
  9  7  1  0  0  0  0 
  9  8  1  0  0  0  0 
 12  1  1  0  0  0  0 
 14  2  1  0  0  0  0 
 17  3  1  0  0  0  0 
 18  3  1  0  0  0  0 
 19  4  1  0  0  0  0 
 21  4  1  0  0  0  0 
 22  5  1  0  0  0  0 
 23  5  1  0  0  0  0 
 26  6  1  0  0  0  0 
 27  7  1  0  0  0  0 
M  END 
>  <HBA> 
0 
 
>  <HBD> 
0 
 
>  <TPSA> 
0.0 
 
>  <cid> 
28023 
 
>  <dipole> 
0.1 
 
>  <excitation_energy_1> 
7.49 
 
>  <excitation_energy_2> 
7.548 
 
>  <excitation_energy_3> 
7.725 
 
>  <excitation_energy_4> 
7.848 
 
>  <homo_energy> 
-7.946 
 
>  <homo_lumo_gap> 
10.003 
 
>  <logP> 
3.469 
 
>  <lumo_energy> 
2.057 
 
>  <melting_point> 
-9.87 
 
>  <molecular_refractivity> 
45.12 
 
>  <oscillator_strength_1> 
0.0022 
 
>  <oscillator_strength_2> 
0.0128 
 
>  <oscillator_strength_3> 
0.0117 
 
>  <oscillator_strength_4> 
0.0241 
 
>  <open_babel_can_smiles> 
CCCC(C(C)C)(C)C 
 
>  <mulliken_charges> 
29 
1   -0.442195 
2   -0.458272 
3   -0.456888 
4   -0.458851 
5   -0.459377 
6   -0.26147 
7   -0.256095 
8   -0.066523 
9   0.111548 
10   0.140591 
11   0.14049 
12   0.14118 
13   0.138301 
14   0.14203 
15   0.145236 
16   0.138033 
17   0.144041 
18   0.142017 
19   0.136841 
20   0.14037 
21   0.140897 
22   0.13555 
23   0.14215 
24   0.14021 
25   0.136359 
26   0.134709 
27   0.120767 
28   0.126886 
29   0.121466 
 
>  <lowdin_charges> 
29 
1   -0.44343 
2   -0.447131 
3   -0.449253 
4   -0.443107 
5   -0.445494 
6   -0.276313 
7   -0.276096 
8   -0.124076 
9   0.010114 
10   0.149767 
11   0.145103 
12   0.145156 
13   0.147604 
14   0.146746 
15   0.146773 
16   0.14701 
17   0.149423 
18   0.146846 
19   0.146892 
20   0.146157 
21   0.145353 
22   0.146512 
23   0.146388 
24   0.14684 
25   0.139501 
26   0.140279 
27   0.136822 
28   0.13799 
29   0.137624 
 
$$$$ 
 
