PCCDB-ID:  16925 
public computational chemistry database (PCCDB) project, http://pccdb.org 
 
 22 23  0  0  0  0  0  0  0  0999 V2000 
    1.0323    0.0775    0.0677 C   0  0  0  0  0  0  0  0  0  0  0  0 
    2.4716   -2.5446   -0.0262 C   0  0  0  0  0  0  0  0  0  0  0  0 
    6.6679    2.2832   -0.2343 C   0  0  0  0  0  0  0  0  0  0  0  0 
    7.3496    1.0414   -0.2794 C   0  0  0  0  0  0  0  0  0  0  0  0 
    5.2923    2.3258   -0.1580 C   0  0  0  0  0  0  0  0  0  0  0  0 
    6.6488   -0.1451   -0.2474 C   0  0  0  0  0  0  0  0  0  0  0  0 
    2.5359    0.0223   -0.0172 C   0  0  0  0  0  0  0  0  0  0  0  0 
    3.2306   -1.2432   -0.0622 C   0  0  0  0  0  0  0  0  0  0  0  0 
    4.5487    1.1201   -0.1230 C   0  0  0  0  0  0  0  0  0  0  0  0 
    5.2343   -0.1285   -0.1677 C   0  0  0  0  0  0  0  0  0  0  0  0 
    3.1861    1.1671   -0.0469 N   0  0  0  0  0  0  0  0  0  0  0  0 
    4.5440   -1.3064   -0.1352 N   0  0  0  0  0  0  0  0  0  0  0  0 
    0.5621   -0.4217   -0.7892 H   0  0  0  0  0  0  0  0  0  0  0  0 
    0.7108    1.1207    0.0876 H   0  0  0  0  0  0  0  0  0  0  0  0 
    0.6613   -0.4249    0.9702 H   0  0  0  0  0  0  0  0  0  0  0  0 
    1.7777   -2.6293   -0.8723 H   0  0  0  0  0  0  0  0  0  0  0  0 
    1.8710   -2.6355    0.8878 H   0  0  0  0  0  0  0  0  0  0  0  0 
    3.1792   -3.3751   -0.0667 H   0  0  0  0  0  0  0  0  0  0  0  0 
    7.2390    3.2072   -0.2611 H   0  0  0  0  0  0  0  0  0  0  0  0 
    8.4343    1.0297   -0.3414 H   0  0  0  0  0  0  0  0  0  0  0  0 
    4.7463    3.2636   -0.1227 H   0  0  0  0  0  0  0  0  0  0  0  0 
    7.1472   -1.1091   -0.2815 H   0  0  0  0  0  0  0  0  0  0  0  0 
  1 14  1  0  0  0  0 
  1 15  1  0  0  0  0 
  2 17  1  0  0  0  0 
  3  5  2  0  0  0  0 
  4  6  2  0  0  0  0 
  4  3  1  0  0  0  0 
  5  9  1  0  0  0  0 
  5 21  1  0  0  0  0 
  6 10  1  0  0  0  0 
  7  1  1  0  0  0  0 
  8  2  1  0  0  0  0 
  8  7  2  0  0  0  0 
  9 11  2  0  0  0  0 
 10 12  2  0  0  0  0 
 10  9  1  0  0  0  0 
 11  7  1  0  0  0  0 
 12  8  1  0  0  0  0 
 13  1  1  0  0  0  0 
 16  2  1  0  0  0  0 
 18  2  1  0  0  0  0 
 19  3  1  0  0  0  0 
 20  4  1  0  0  0  0 
 22  6  1  0  0  0  0 
M  END 
>  <HBA> 
2 
 
>  <HBD> 
0 
 
>  <TPSA> 
25.78 
 
>  <cid> 
16925 
 
>  <dipole> 
0.56 
 
>  <excitation_energy_1> 
3.693 
 
>  <excitation_energy_2> 
4.248 
 
>  <excitation_energy_3> 
4.376 
 
>  <excitation_energy_4> 
4.83 
 
>  <homo_energy> 
-6.463 
 
>  <homo_lumo_gap> 
4.855 
 
>  <logP> 
2.247 
 
>  <lumo_energy> 
-1.608 
 
>  <melting_point> 
88.34 
 
>  <molecular_refractivity> 
49.47 
 
>  <oscillator_strength_1> 
0.0022 
 
>  <oscillator_strength_2> 
0.0222 
 
>  <oscillator_strength_3> 
0.1072 
 
>  <oscillator_strength_4> 
0.0 
 
>  <open_babel_can_smiles> 
Cc1nc2ccccc2nc1C 
 
>  <mulliken_charges> 
22 
1   -0.525392 
2   -0.525406 
3   -0.136034 
4   -0.136146 
5   -0.156156 
6   -0.156128 
7   0.280155 
8   0.280294 
9   0.273315 
10   0.27325 
11   -0.523239 
12   -0.52315 
13   0.163167 
14   0.181067 
15   0.163333 
16   0.163302 
17   0.163208 
18   0.181048 
19   0.135848 
20   0.135878 
21   0.143887 
22   0.1439 
 
>  <lowdin_charges> 
22 
1   -0.448646 
2   -0.448527 
3   -0.153193 
4   -0.149937 
5   -0.153893 
6   -0.153919 
7   0.035538 
8   0.033643 
9   0.023796 
10   0.024042 
11   -0.134454 
12   -0.134283 
13   0.163722 
14   0.172723 
15   0.163481 
16   0.163469 
17   0.163141 
18   0.174243 
19   0.161792 
20   0.159342 
21   0.169098 
22   0.168822 
 
$$$$ 
 
