PCCDB-ID:  70750 
public computational chemistry database (PCCDB) project, http://pccdb.org 
 
 22 22  0  0  0  0  0  0  0  0999 V2000 
    3.7811    0.2333    0.8488 C   0  0  0  0  0  0  0  0  0  0  0  0 
    3.2775    1.1482   -2.6383 C   0  0  0  0  0  0  0  0  0  0  0  0 
    2.5213   -0.0640    0.0142 C   0  0  0  0  0  0  0  0  0  0  0  0 
    2.7067   -2.3065   -1.1173 C   0  0  0  0  0  0  0  0  0  0  0  0 
    2.9834   -3.1440   -2.1979 C   0  0  0  0  0  0  0  0  0  0  0  0 
    3.4547   -1.1883   -3.5328 C   0  0  0  0  0  0  0  0  0  0  0  0 
    3.1794   -0.3501   -2.4499 C   0  0  0  0  0  0  0  0  0  0  0  0 
    2.7983   -0.9144   -1.2110 C   0  0  0  0  0  0  0  0  0  0  0  0 
    3.3624   -2.5778   -3.4153 C   0  0  0  0  0  0  0  0  0  0  0  0 
    3.6496   -3.3248   -4.5278 O   0  0  0  0  0  0  0  0  0  0  0  0 
    3.5362    0.8421    1.7272 H   0  0  0  0  0  0  0  0  0  0  0  0 
    4.5327    0.7738    0.2624 H   0  0  0  0  0  0  0  0  0  0  0  0 
    4.2439   -0.6967    1.1973 H   0  0  0  0  0  0  0  0  0  0  0  0 
    3.6481    1.3928   -3.6382 H   0  0  0  0  0  0  0  0  0  0  0  0 
    3.9535    1.6119   -1.9106 H   0  0  0  0  0  0  0  0  0  0  0  0 
    2.3007    1.6351   -2.5200 H   0  0  0  0  0  0  0  0  0  0  0  0 
    2.0495    0.8825   -0.2762 H   0  0  0  0  0  0  0  0  0  0  0  0 
    1.7925   -0.5824    0.6502 H   0  0  0  0  0  0  0  0  0  0  0  0 
    2.4074   -2.7528   -0.1710 H   0  0  0  0  0  0  0  0  0  0  0  0 
    2.9003   -4.2246   -2.0937 H   0  0  0  0  0  0  0  0  0  0  0  0 
    3.7461   -0.7705   -4.4923 H   0  0  0  0  0  0  0  0  0  0  0  0 
    3.5514   -4.2635   -4.3054 H   0  0  0  0  0  0  0  0  0  0  0  0 
  1 13  1  0  0  0  0 
  1 11  1  0  0  0  0 
  2 16  1  0  0  0  0 
  2  7  1  0  0  0  0 
  2 15  1  0  0  0  0 
  3 18  1  0  0  0  0 
  3  1  1  0  0  0  0 
  4 19  1  0  0  0  0 
  5 20  1  0  0  0  0 
  5  4  2  0  0  0  0 
  6  9  2  0  0  0  0 
  6  7  1  0  0  0  0 
  7  8  2  0  0  0  0 
  8  4  1  0  0  0  0 
  8  3  1  0  0  0  0 
  9  5  1  0  0  0  0 
 10 22  1  0  0  0  0 
 10  9  1  0  0  0  0 
 12  1  1  0  0  0  0 
 14  2  1  0  0  0  0 
 17  3  1  0  0  0  0 
 21  6  1  0  0  0  0 
M  END 
>  <HBA> 
1 
 
>  <HBD> 
1 
 
>  <TPSA> 
20.23 
 
>  <cid> 
70750 
 
>  <dipole> 
1.15 
 
>  <excitation_energy_1> 
4.92 
 
>  <excitation_energy_2> 
5.014 
 
>  <excitation_energy_3> 
5.381 
 
>  <excitation_energy_4> 
5.672 
 
>  <homo_energy> 
-5.663 
 
>  <homo_lumo_gap> 
5.85 
 
>  <logP> 
2.263 
 
>  <lumo_energy> 
0.188 
 
>  <melting_point> 
52.3 
 
>  <molecular_refractivity> 
43.2 
 
>  <oscillator_strength_1> 
0.0312 
 
>  <oscillator_strength_2> 
0.0012 
 
>  <oscillator_strength_3> 
0.0628 
 
>  <oscillator_strength_4> 
0.0292 
 
>  <open_babel_can_smiles> 
CCc1ccc(cc1C)O 
 
>  <mulliken_charges> 
22 
1   -0.435961 
2   -0.540018 
3   -0.339633 
4   -0.192957 
5   -0.195053 
6   -0.222548 
7   0.128118 
8   0.123293 
9   0.355122 
10   -0.647328 
11   0.140984 
12   0.148884 
13   0.148147 
14   0.156758 
15   0.161427 
16   0.162522 
17   0.139572 
18   0.139813 
19   0.120798 
20   0.113369 
21   0.129603 
22   0.405088 
 
>  <lowdin_charges> 
22 
1   -0.443729 
2   -0.443598 
3   -0.27326 
4   -0.155553 
5   -0.218102 
6   -0.197212 
7   0.004039 
8   -0.031724 
9   0.098544 
10   -0.380698 
11   0.148261 
12   0.149617 
13   0.150306 
14   0.15729 
15   0.159633 
16   0.159169 
17   0.147756 
18   0.149112 
19   0.153757 
20   0.149166 
21   0.162485 
22   0.354741 
 
$$$$ 
 
