PCCDB-ID:  29421 
public computational chemistry database (PCCDB) project, http://pccdb.org 
 
 30 29  0  0  0  0  0  0  0  0999 V2000 
    1.9443   -1.8133    1.3278 C   0  0  0  0  0  0  0  0  0  0  0  0 
    4.4917    8.7230   -2.8682 C   0  0  0  0  0  0  0  0  0  0  0  0 
    3.2681   -1.1040    1.0249 C   0  0  0  0  0  0  0  0  0  0  0  0 
    4.6706    7.5324   -1.9804 C   0  0  0  0  0  0  0  0  0  0  0  0 
    3.0944    0.1673    0.1841 C   0  0  0  0  0  0  0  0  0  0  0  0 
    4.4170    0.8796   -0.1273 C   0  0  0  0  0  0  0  0  0  0  0  0 
    4.2318    2.1614   -0.9507 C   0  0  0  0  0  0  0  0  0  0  0  0 
    4.9394    6.2891   -2.3975 C   0  0  0  0  0  0  0  0  0  0  0  0 
    5.5596    2.8506   -1.2499 C   0  0  0  0  0  0  0  0  0  0  0  0 
    5.0996    5.1820   -1.4280 C   0  0  0  0  0  0  0  0  0  0  0  0 
    5.0048    5.2777   -0.2184 O   0  0  0  0  0  0  0  0  0  0  0  0 
    5.3764    4.0220   -2.0754 O   0  0  0  0  0  0  0  0  0  0  0  0 
    2.1021   -2.7137    1.9325 H   0  0  0  0  0  0  0  0  0  0  0  0 
    1.4366   -2.1172    0.4041 H   0  0  0  0  0  0  0  0  0  0  0  0 
    1.2603   -1.1570    1.8799 H   0  0  0  0  0  0  0  0  0  0  0  0 
    3.4988    9.1699   -2.7235 H   0  0  0  0  0  0  0  0  0  0  0  0 
    4.6050    8.4677   -3.9264 H   0  0  0  0  0  0  0  0  0  0  0  0 
    5.2215    9.5054   -2.6201 H   0  0  0  0  0  0  0  0  0  0  0  0 
    3.9426   -1.7957    0.5000 H   0  0  0  0  0  0  0  0  0  0  0  0 
    3.7703   -0.8473    1.9685 H   0  0  0  0  0  0  0  0  0  0  0  0 
    4.5756    7.6907   -0.9065 H   0  0  0  0  0  0  0  0  0  0  0  0 
    2.4239    0.8622    0.7109 H   0  0  0  0  0  0  0  0  0  0  0  0 
    2.5883   -0.0874   -0.7589 H   0  0  0  0  0  0  0  0  0  0  0  0 
    5.0819    0.1884   -0.6667 H   0  0  0  0  0  0  0  0  0  0  0  0 
    4.9280    1.1224    0.8158 H   0  0  0  0  0  0  0  0  0  0  0  0 
    3.5876    2.8632   -0.4077 H   0  0  0  0  0  0  0  0  0  0  0  0 
    3.7304    1.9289   -1.8997 H   0  0  0  0  0  0  0  0  0  0  0  0 
    5.0503    6.0440   -3.4503 H   0  0  0  0  0  0  0  0  0  0  0  0 
    6.2195    2.2030   -1.8346 H   0  0  0  0  0  0  0  0  0  0  0  0 
    6.0656    3.1431   -0.3258 H   0  0  0  0  0  0  0  0  0  0  0  0 
  1 15  1  0  0  0  0 
  1 13  1  0  0  0  0 
  2 16  1  0  0  0  0 
  2 18  1  0  0  0  0 
  2  4  1  0  0  0  0 
  3  1  1  0  0  0  0 
  3 20  1  0  0  0  0 
  4 21  1  0  0  0  0 
  5 22  1  0  0  0  0 
  5  3  1  0  0  0  0 
  6  5  1  0  0  0  0 
  6 25  1  0  0  0  0 
  7 26  1  0  0  0  0 
  7  6  1  0  0  0  0 
  8  4  2  0  0  0  0 
  8 10  1  0  0  0  0 
  9  7  1  0  0  0  0 
  9 30  1  0  0  0  0 
 10 11  2  0  0  0  0 
 12 10  1  0  0  0  0 
 12  9  1  0  0  0  0 
 14  1  1  0  0  0  0 
 17  2  1  0  0  0  0 
 19  3  1  0  0  0  0 
 23  5  1  0  0  0  0 
 24  6  1  0  0  0  0 
 27  7  1  0  0  0  0 
 28  8  1  0  0  0  0 
 29  9  1  0  0  0  0 
M  END 
>  <HBA> 
2 
 
>  <HBD> 
0 
 
>  <TPSA> 
26.3 
 
>  <cid> 
29421 
 
>  <dipole> 
1.45 
 
>  <excitation_energy_1> 
4.867 
 
>  <excitation_energy_2> 
6.001 
 
>  <excitation_energy_3> 
6.171 
 
>  <excitation_energy_4> 
6.829 
 
>  <homo_energy> 
-7.192 
 
>  <homo_lumo_gap> 
6.275 
 
>  <logP> 
2.686 
 
>  <lumo_energy> 
-0.917 
 
>  <melting_point> 
-6.99 
 
>  <molecular_refractivity> 
50.99 
 
>  <oscillator_strength_1> 
0.0002 
 
>  <oscillator_strength_2> 
0.513 
 
>  <oscillator_strength_3> 
0.1083 
 
>  <oscillator_strength_4> 
0.0047 
 
>  <open_babel_can_smiles> 
CCCCCCOC(=O)/C=C/C 
 
>  <mulliken_charges> 
30 
1   -0.441592 
2   -0.498074 
3   -0.247908 
4   -0.054465 
5   -0.245196 
6   -0.264072 
7   -0.278152 
8   -0.186808 
9   -0.042633 
10   0.612957 
11   -0.502217 
12   -0.482906 
13   0.142068 
14   0.141213 
15   0.142554 
16   0.168577 
17   0.161571 
18   0.168771 
19   0.129775 
20   0.131928 
21   0.165883 
22   0.132052 
23   0.12791 
24   0.12794 
25   0.136677 
26   0.159893 
27   0.139818 
28   0.142414 
29   0.145847 
30   0.166177 
 
>  <lowdin_charges> 
30 
1   -0.446153 
2   -0.437912 
3   -0.273789 
4   -0.094029 
5   -0.274549 
6   -0.27547 
7   -0.287786 
8   -0.210778 
9   -0.134859 
10   0.193275 
11   -0.282869 
12   -0.194664 
13   0.149729 
14   0.146543 
15   0.148232 
16   0.16584 
17   0.157957 
18   0.167129 
19   0.139906 
20   0.139718 
21   0.169841 
22   0.141507 
23   0.13813 
24   0.139092 
25   0.142126 
26   0.156825 
27   0.145118 
28   0.1639 
29   0.150828 
30   0.157163 
 
$$$$ 
 
