PCCDB-ID:  20085 
public computational chemistry database (PCCDB) project, http://pccdb.org 
 
 31 32  0  0  0  0  0  0  0  0999 V2000 
    2.1953    1.0016   -0.8444 C   0  0  0  0  0  0  0  0  0  0  0  0 
   -0.2400   -6.6131   -8.6806 C   0  0  0  0  0  0  0  0  0  0  0  0 
    0.2967   -5.3294   -8.8435 C   0  0  0  0  0  0  0  0  0  0  0  0 
   -0.2504   -7.2087   -7.4182 C   0  0  0  0  0  0  0  0  0  0  0  0 
    0.8205   -4.6409   -7.7553 C   0  0  0  0  0  0  0  0  0  0  0  0 
    0.2730   -6.5235   -6.3230 C   0  0  0  0  0  0  0  0  0  0  0  0 
    3.3306   -0.8896   -3.3534 C   0  0  0  0  0  0  0  0  0  0  0  0 
    2.8158   -2.7805   -1.9241 C   0  0  0  0  0  0  0  0  0  0  0  0 
    2.8159   -1.5856   -4.4421 C   0  0  0  0  0  0  0  0  0  0  0  0 
    2.2932   -3.4665   -3.0071 C   0  0  0  0  0  0  0  0  0  0  0  0 
    3.4446    0.2363   -0.4664 C   0  0  0  0  0  0  0  0  0  0  0  0 
    3.3258   -1.4723   -2.0731 C   0  0  0  0  0  0  0  0  0  0  0  0 
    0.8099   -5.2388   -6.4829 C   0  0  0  0  0  0  0  0  0  0  0  0 
    2.2863   -2.8735   -4.2849 C   0  0  0  0  0  0  0  0  0  0  0  0 
    3.8950   -0.8388   -0.9670 N   0  0  0  0  0  0  0  0  0  0  0  0 
    1.3113   -4.6380   -5.3003 N   0  0  0  0  0  0  0  0  0  0  0  0 
    1.7855   -3.4780   -5.4577 N   0  0  0  0  0  0  0  0  0  0  0  0 
    4.1566    0.7649    0.5674 O   0  0  0  0  0  0  0  0  0  0  0  0 
    1.6492    0.4969   -1.6420 H   0  0  0  0  0  0  0  0  0  0  0  0 
    2.4498    2.0136   -1.1831 H   0  0  0  0  0  0  0  0  0  0  0  0 
    1.5365    1.0978    0.0281 H   0  0  0  0  0  0  0  0  0  0  0  0 
   -0.6467   -7.1442   -9.5371 H   0  0  0  0  0  0  0  0  0  0  0  0 
    0.3049   -4.8676   -9.8275 H   0  0  0  0  0  0  0  0  0  0  0  0 
   -0.6654   -8.2043   -7.2871 H   0  0  0  0  0  0  0  0  0  0  0  0 
    1.2410   -3.6472   -7.8620 H   0  0  0  0  0  0  0  0  0  0  0  0 
    0.2790   -6.9616   -5.3294 H   0  0  0  0  0  0  0  0  0  0  0  0 
    3.7593    0.0997   -3.4852 H   0  0  0  0  0  0  0  0  0  0  0  0 
    2.8388   -3.2349   -0.9381 H   0  0  0  0  0  0  0  0  0  0  0  0 
    2.8131   -1.1469   -5.4356 H   0  0  0  0  0  0  0  0  0  0  0  0 
    1.8885   -4.4661   -2.8939 H   0  0  0  0  0  0  0  0  0  0  0  0 
    3.7059    1.5584    0.8950 H   0  0  0  0  0  0  0  0  0  0  0  0 
  1 11  1  0  0  0  0 
  1 21  1  0  0  0  0 
  2  4  1  0  0  0  0 
  3  2  2  0  0  0  0 
  3  5  1  0  0  0  0 
  4 24  1  0  0  0  0 
  4  6  2  0  0  0  0 
  5 13  2  0  0  0  0 
  6 26  1  0  0  0  0 
  7 12  2  0  0  0  0 
  8 28  1  0  0  0  0 
  9 14  2  0  0  0  0 
  9  7  1  0  0  0  0 
 10 30  1  0  0  0  0 
 10  8  2  0  0  0  0 
 11 18  1  0  0  0  0 
 12  8  1  0  0  0  0 
 12 15  1  0  0  0  0 
 13  6  1  0  0  0  0 
 13 16  1  0  0  0  0 
 14 10  1  0  0  0  0 
 15 11  2  0  0  0  0 
 17 16  1  0  0  0  0 
 17 14  1  0  0  0  0 
 18 31  1  0  0  0  0 
 19  1  1  0  0  0  0 
 20  1  1  0  0  0  0 
 22  2  1  0  0  0  0 
 23  3  1  0  0  0  0 
 25  5  1  0  0  0  0 
 27  7  1  0  0  0  0 
 29  9  1  0  0  0  0 
M  RAD  2  16   2  17   2 
M  END 
>  <HBA> 
4 
 
>  <HBD> 
1 
 
>  <TPSA> 
53.82 
 
>  <cid> 
20085 
 
>  <dipole> 
4.23 
 
>  <excitation_energy_1> 
2.634 
 
>  <excitation_energy_2> 
3.332 
 
>  <excitation_energy_3> 
4.063 
 
>  <excitation_energy_4> 
4.112 
 
>  <homo_energy> 
-5.627 
 
>  <homo_lumo_gap> 
3.641 
 
>  <logP> 
4.133 
 
>  <lumo_energy> 
-1.986 
 
>  <melting_point> 
117.09 
 
>  <molecular_refractivity> 
71.37 
 
>  <oscillator_strength_1> 
0.0001 
 
>  <oscillator_strength_2> 
0.9693 
 
>  <oscillator_strength_3> 
0.0133 
 
>  <oscillator_strength_4> 
0.0041 
 
>  <open_babel_can_smiles> 
C/C(=N\c1ccc(cc1)[N][N]c1ccccc1)/O 
 
>  <mulliken_charges> 
31 
1   -0.555214 
2   -0.119302 
3   -0.146059 
4   -0.138764 
5   -0.125028 
6   -0.14169 
7   -0.168118 
8   -0.165503 
9   -0.149394 
10   -0.132951 
11   0.484511 
12   0.250177 
13   0.270559 
14   0.272881 
15   -0.461405 
16   -0.315516 
17   -0.313366 
18   -0.565471 
19   0.200705 
20   0.178491 
21   0.175257 
22   0.131727 
23   0.133134 
24   0.132906 
25   0.152442 
26   0.13899 
27   0.129471 
28   0.139421 
29   0.140413 
30   0.155966 
31   0.410732 
 
>  <lowdin_charges> 
31 
1   -0.483219 
2   -0.150953 
3   -0.153635 
4   -0.156012 
5   -0.151676 
6   -0.148638 
7   -0.190002 
8   -0.169453 
9   -0.141242 
10   -0.142843 
11   0.150002 
12   0.057981 
13   0.012558 
14   -0.003839 
15   -0.164134 
16   -0.092017 
17   -0.081962 
18   -0.355125 
19   0.186522 
20   0.171123 
21   0.170784 
22   0.159758 
23   0.158214 
24   0.15861 
25   0.171188 
26   0.165586 
27   0.158755 
28   0.164946 
29   0.166476 
30   0.173281 
31   0.358963 
 
$$$$ 
 
