PCCDB-ID:  14141 
public computational chemistry database (PCCDB) project, http://pccdb.org 
 
 30 31  0  0  0  0  0  0  0  0999 V2000 
    3.8940    3.3670    5.4392 C   0  0  0  0  0  0  0  0  0  0  0  0 
   10.7471   -2.8741   -2.5408 C   0  0  0  0  0  0  0  0  0  0  0  0 
    9.5849   -3.4027   -1.9794 C   0  0  0  0  0  0  0  0  0  0  0  0 
   11.3383   -1.7423   -1.9723 C   0  0  0  0  0  0  0  0  0  0  0  0 
    9.0166   -2.8017   -0.8537 C   0  0  0  0  0  0  0  0  0  0  0  0 
   10.7713   -1.1472   -0.8468 C   0  0  0  0  0  0  0  0  0  0  0  0 
    4.8497    1.8555    3.5027 C   0  0  0  0  0  0  0  0  0  0  0  0 
    8.9926   -1.0247    0.9485 C   0  0  0  0  0  0  0  0  0  0  0  0 
    4.9657    2.8232    4.5457 C   0  0  0  0  0  0  0  0  0  0  0  0 
    9.6056   -1.6739   -0.2719 C   0  0  0  0  0  0  0  0  0  0  0  0 
    6.1172    1.7364    3.0237 C   0  0  0  0  0  0  0  0  0  0  0  0 
    6.6665    0.8899    1.9328 C   0  0  0  0  0  0  0  0  0  0  0  0 
    8.6481    0.3856    0.6442 N   0  0  0  0  0  0  0  0  0  0  0  0 
    8.0107    1.0086    1.7330 N   0  0  0  0  0  0  0  0  0  0  0  0 
    6.2068    3.2473    4.6746 N   0  0  0  0  0  0  0  0  0  0  0  0 
    5.9412    0.1540    1.2706 O   0  0  0  0  0  0  0  0  0  0  0  0 
    6.9474    2.5583    3.7074 O   0  0  0  0  0  0  0  0  0  0  0  0 
    3.4261    2.5645    6.0202 H   0  0  0  0  0  0  0  0  0  0  0  0 
    3.1068    3.8529    4.8520 H   0  0  0  0  0  0  0  0  0  0  0  0 
    4.3171    4.0990    6.1312 H   0  0  0  0  0  0  0  0  0  0  0  0 
   11.1903   -3.3388   -3.4176 H   0  0  0  0  0  0  0  0  0  0  0  0 
    9.1172   -4.2807   -2.4171 H   0  0  0  0  0  0  0  0  0  0  0  0 
   12.2425   -1.3244   -2.4072 H   0  0  0  0  0  0  0  0  0  0  0  0 
    8.1071   -3.2124   -0.4214 H   0  0  0  0  0  0  0  0  0  0  0  0 
   11.2260   -0.2625   -0.4093 H   0  0  0  0  0  0  0  0  0  0  0  0 
    3.9724    1.3284    3.1608 H   0  0  0  0  0  0  0  0  0  0  0  0 
    9.7111   -1.0016    1.7768 H   0  0  0  0  0  0  0  0  0  0  0  0 
    8.1156   -1.5946    1.2831 H   0  0  0  0  0  0  0  0  0  0  0  0 
    7.9741    0.3853   -0.1234 H   0  0  0  0  0  0  0  0  0  0  0  0 
    8.5333    1.7459    2.1880 H   0  0  0  0  0  0  0  0  0  0  0  0 
  1 18  1  0  0  0  0 
  1 20  1  0  0  0  0 
  2  3  2  0  0  0  0 
  2  4  1  0  0  0  0 
  3  5  1  0  0  0  0 
  4  6  2  0  0  0  0 
  5 24  1  0  0  0  0 
  5 10  2  0  0  0  0 
  6 25  1  0  0  0  0 
  6 10  1  0  0  0  0 
  7  9  1  0  0  0  0 
  8 28  1  0  0  0  0 
  8 27  1  0  0  0  0 
  9 15  2  0  0  0  0 
  9  1  1  0  0  0  0 
 10  8  1  0  0  0  0 
 11  7  2  0  0  0  0 
 11 17  1  0  0  0  0 
 12 11  1  0  0  0  0 
 13  8  1  0  0  0  0 
 13 14  1  0  0  0  0 
 14 12  1  0  0  0  0 
 14 30  1  0  0  0  0 
 16 12  2  0  0  0  0 
 17 15  1  0  0  0  0 
 19  1  1  0  0  0  0 
 21  2  1  0  0  0  0 
 22  3  1  0  0  0  0 
 23  4  1  0  0  0  0 
 26  7  1  0  0  0  0 
 29 13  1  0  0  0  0 
M  END 
>  <HBA> 
5 
 
>  <HBD> 
2 
 
>  <TPSA> 
67.16 
 
>  <cid> 
14141 
 
>  <dipole> 
0.88 
 
>  <excitation_energy_1> 
4.365 
 
>  <excitation_energy_2> 
4.632 
 
>  <excitation_energy_3> 
4.674 
 
>  <excitation_energy_4> 
4.805 
 
>  <homo_energy> 
-6.612 
 
>  <homo_lumo_gap> 
5.138 
 
>  <logP> 
2.199 
 
>  <lumo_energy> 
-1.475 
 
>  <melting_point> 
142.54 
 
>  <molecular_refractivity> 
61.75 
 
>  <oscillator_strength_1> 
0.0289 
 
>  <oscillator_strength_2> 
0.0234 
 
>  <oscillator_strength_3> 
0.0214 
 
>  <oscillator_strength_4> 
0.0119 
 
>  <open_babel_can_smiles> 
Cc1noc(c1)C(=O)NNCc1ccccc1 
 
>  <mulliken_charges> 
30 
1   -0.525466 
2   -0.127646 
3   -0.128907 
4   -0.130781 
5   -0.182225 
6   -0.157529 
7   -0.261307 
8   -0.194125 
9   0.315213 
10   0.128416 
11   0.371704 
12   0.569657 
13   -0.420164 
14   -0.496983 
15   -0.198294 
16   -0.527128 
17   -0.412601 
18   0.1759 
19   0.176019 
20   0.186961 
21   0.130118 
22   0.131092 
23   0.130662 
24   0.133657 
25   0.137227 
26   0.174074 
27   0.157654 
28   0.158538 
29   0.327833 
30   0.358431 
 
>  <lowdin_charges> 
30 
1   -0.443129 
2   -0.156131 
3   -0.156701 
4   -0.15587 
5   -0.163378 
6   -0.154475 
7   -0.205875 
8   -0.203489 
9   0.027731 
10   -0.017334 
11   0.058002 
12   0.145379 
13   -0.27954 
14   -0.213064 
15   -0.076966 
16   -0.304162 
17   -0.080509 
18   0.17191 
19   0.172023 
20   0.178503 
21   0.158458 
22   0.158963 
23   0.158282 
24   0.159301 
25   0.163001 
26   0.191791 
27   0.153492 
28   0.147188 
29   0.268481 
30   0.298115 
 
$$$$ 
 
