PCCDB-ID:  71546 
public computational chemistry database (PCCDB) project, http://pccdb.org 
 
 25 25  0  0  1  0  0  0  0  0999 V2000 
    4.2490    1.5770   -1.0754 C   0  0  0  0  0  0  0  0  0  0  0  0 
    0.8453    0.4776    1.8983 C   0  0  0  0  0  0  0  0  0  0  0  0 
    2.2122    0.6023    2.1339 C   0  0  0  0  0  0  0  0  0  0  0  0 
    0.3559   -0.5041    1.0337 C   0  0  0  0  0  0  0  0  0  0  0  0 
    2.6258   -1.2575    0.6453 C   0  0  0  0  0  0  0  0  0  0  0  0 
    5.2815    1.1223    1.1462 C   0  0  0  0  0  0  0  0  0  0  0  0 
    3.1148   -0.2634    1.4953 C   0  0  0  0  0  0  0  0  0  0  0  0 
    1.2518   -1.3752    0.4075 C   0  0  0  0  0  0  0  0  0  0  0  0 
    4.6060   -0.1351    1.7500 C   0  0  2  0  0  0  0  0  0  0  0  0 
    5.4260    1.2035   -0.2974 N   0  0  0  0  0  0  0  0  0  0  0  0 
    0.8475   -2.3695   -0.4411 O   0  0  0  0  0  0  0  0  0  0  0  0 
    4.8809   -0.0449    3.1523 O   0  0  0  0  0  0  0  0  0  0  0  0 
    3.4152    0.8581   -1.0625 H   0  0  0  0  0  0  0  0  0  0  0  0 
    4.5509    1.7307   -2.1179 H   0  0  0  0  0  0  0  0  0  0  0  0 
    3.8674    2.5339   -0.7002 H   0  0  0  0  0  0  0  0  0  0  0  0 
    0.1464    1.1481    2.3915 H   0  0  0  0  0  0  0  0  0  0  0  0 
    2.5873    1.3577    2.8174 H   0  0  0  0  0  0  0  0  0  0  0  0 
   -0.7137   -0.5974    0.8535 H   0  0  0  0  0  0  0  0  0  0  0  0 
    3.2996   -1.9546    0.1547 H   0  0  0  0  0  0  0  0  0  0  0  0 
    4.7439    2.0137    1.4910 H   0  0  0  0  0  0  0  0  0  0  0  0 
    6.2804    1.1613    1.5998 H   0  0  0  0  0  0  0  0  0  0  0  0 
    5.1094   -1.0202    1.3227 H   0  0  0  0  0  0  0  0  0  0  0  0 
    5.8482    0.3547   -0.6659 H   0  0  0  0  0  0  0  0  0  0  0  0 
   -0.1194   -2.3482   -0.5128 H   0  0  0  0  0  0  0  0  0  0  0  0 
    4.3660   -0.7377    3.5953 H   0  0  0  0  0  0  0  0  0  0  0  0 
  1 13  1  0  0  0  0 
  1 15  1  0  0  0  0 
  1 10  1  0  0  0  0 
  2  3  1  0  0  0  0 
  2 16  1  0  0  0  0 
  3 17  1  0  0  0  0 
  4  2  2  0  0  0  0 
  5  7  1  0  0  0  0 
  6 20  1  0  0  0  0 
  6 21  1  0  0  0  0 
  6  9  1  0  0  0  0 
  7  9  1  0  0  0  0 
  7  3  2  0  0  0  0 
  8  5  2  0  0  0  0 
  8  4  1  0  0  0  0 
  9 22  1  6  0  0  0 
  9 12  1  0  0  0  0 
 10  6  1  0  0  0  0 
 11  8  1  0  0  0  0 
 12 25  1  0  0  0  0 
 14  1  1  0  0  0  0 
 18  4  1  0  0  0  0 
 19  5  1  0  0  0  0 
 23 10  1  0  0  0  0 
 24 11  1  0  0  0  0 
M  END 
>  <HBA> 
3 
 
>  <HBD> 
3 
 
>  <TPSA> 
52.49 
 
>  <cid> 
71546 
 
>  <dipole> 
3.25 
 
>  <excitation_energy_1> 
4.494 
 
>  <excitation_energy_2> 
4.813 
 
>  <excitation_energy_3> 
5.055 
 
>  <excitation_energy_4> 
5.089 
 
>  <homo_energy> 
-5.551 
 
>  <homo_lumo_gap> 
5.309 
 
>  <logP> 
1.036 
 
>  <lumo_energy> 
-0.242 
 
>  <melting_point> 
92.6 
 
>  <molecular_refractivity> 
47.01 
 
>  <oscillator_strength_1> 
0.0208 
 
>  <oscillator_strength_2> 
0.0015 
 
>  <oscillator_strength_3> 
0.0462 
 
>  <oscillator_strength_4> 
0.0034 
 
>  <open_babel_can_smiles> 
CNC[C@H](c1cccc(c1)O)O 
 
>  <mulliken_charges> 
25 
1   -0.305096 
2   -0.132684 
3   -0.185106 
4   -0.195649 
5   -0.231736 
6   -0.137656 
7   0.127607 
8   0.35651 
9   0.060578 
10   -0.541888 
11   -0.64299 
12   -0.628309 
13   0.140416 
14   0.143038 
15   0.148364 
16   0.133521 
17   0.140837 
18   0.119125 
19   0.134659 
20   0.145233 
21   0.155473 
22   0.107801 
23   0.290063 
24   0.407784 
25   0.390108 
 
>  <lowdin_charges> 
25 
1   -0.362363 
2   -0.144049 
3   -0.186349 
4   -0.215804 
5   -0.20128 
6   -0.208751 
7   -0.017185 
8   0.103876 
9   -0.014329 
10   -0.361554 
11   -0.376325 
12   -0.464061 
13   0.132243 
14   0.145761 
15   0.14806 
16   0.16112 
17   0.164954 
18   0.15207 
19   0.165626 
20   0.14956 
21   0.152539 
22   0.124539 
23   0.251287 
24   0.355612 
25   0.344804 
 
$$$$ 
 
