PCCDB-ID:  15167 
public computational chemistry database (PCCDB) project, http://pccdb.org 
 
 27 27  0  0  0  0  0  0  0  0999 V2000 
    0.8718   -0.0711   -0.0370 C   0  0  0  0  0  0  0  0  0  0  0  0 
    5.0424   -0.0713    2.3959 C   0  0  0  0  0  0  0  0  0  0  0  0 
    5.3102   -1.3836    1.6451 C   0  0  0  0  0  0  0  0  0  0  0  0 
    5.3104    1.2409    1.6451 C   0  0  0  0  0  0  0  0  0  0  0  0 
    4.4521   -1.6724    0.3949 C   0  0  0  0  0  0  0  0  0  0  0  0 
    4.4522    1.5298    0.3949 C   0  0  0  0  0  0  0  0  0  0  0  0 
    2.9369   -1.3901    0.5365 C   0  0  0  0  0  0  0  0  0  0  0  0 
    2.9371    1.2477    0.5365 C   0  0  0  0  0  0  0  0  0  0  0  0 
    2.4099   -0.0712   -0.0764 C   0  0  0  0  0  0  0  0  0  0  0  0 
    0.4584   -0.9570   -0.5335 H   0  0  0  0  0  0  0  0  0  0  0  0 
    0.4585    0.8149   -0.5335 H   0  0  0  0  0  0  0  0  0  0  0  0 
    0.5061   -0.0711    0.9983 H   0  0  0  0  0  0  0  0  0  0  0  0 
    5.6676   -0.0714    3.2996 H   0  0  0  0  0  0  0  0  0  0  0  0 
    4.0075   -0.0713    2.7617 H   0  0  0  0  0  0  0  0  0  0  0  0 
    5.1544   -2.2038    2.3606 H   0  0  0  0  0  0  0  0  0  0  0  0 
    6.3718   -1.4312    1.3626 H   0  0  0  0  0  0  0  0  0  0  0  0 
    6.3720    1.2884    1.3626 H   0  0  0  0  0  0  0  0  0  0  0  0 
    5.1547    2.0611    2.3606 H   0  0  0  0  0  0  0  0  0  0  0  0 
    4.5920   -2.7330    0.1485 H   0  0  0  0  0  0  0  0  0  0  0  0 
    4.8443   -1.1250   -0.4700 H   0  0  0  0  0  0  0  0  0  0  0  0 
    4.8444    0.9824   -0.4700 H   0  0  0  0  0  0  0  0  0  0  0  0 
    4.5923    2.5904    0.1485 H   0  0  0  0  0  0  0  0  0  0  0  0 
    2.6393   -1.4456    1.5940 H   0  0  0  0  0  0  0  0  0  0  0  0 
    2.3886   -2.2021    0.0408 H   0  0  0  0  0  0  0  0  0  0  0  0 
    2.3889    2.0598    0.0408 H   0  0  0  0  0  0  0  0  0  0  0  0 
    2.6395    1.3032    1.5941 H   0  0  0  0  0  0  0  0  0  0  0  0 
    2.7142   -0.0712   -1.1360 H   0  0  0  0  0  0  0  0  0  0  0  0 
  1 12  1  0  0  0  0 
  2 14  1  0  0  0  0 
  2 13  1  0  0  0  0 
  3 15  1  0  0  0  0 
  3  2  1  0  0  0  0 
  4 18  1  0  0  0  0 
  4  2  1  0  0  0  0 
  5  7  1  0  0  0  0 
  5  3  1  0  0  0  0 
  6  8  1  0  0  0  0 
  6  4  1  0  0  0  0 
  7 23  1  0  0  0  0 
  8 26  1  0  0  0  0 
  9  1  1  0  0  0  0 
  9  7  1  0  0  0  0 
  9  8  1  0  0  0  0 
 10  1  1  0  0  0  0 
 11  1  1  0  0  0  0 
 16  3  1  0  0  0  0 
 17  4  1  0  0  0  0 
 19  5  1  0  0  0  0 
 20  5  1  0  0  0  0 
 21  6  1  0  0  0  0 
 22  6  1  0  0  0  0 
 24  7  1  0  0  0  0 
 25  8  1  0  0  0  0 
 27  9  1  0  0  0  0 
M  END 
>  <HBA> 
0 
 
>  <HBD> 
0 
 
>  <TPSA> 
0.0 
 
>  <cid> 
15167 
 
>  <dipole> 
0.05 
 
>  <excitation_energy_1> 
7.239 
 
>  <excitation_energy_2> 
7.51 
 
>  <excitation_energy_3> 
7.536 
 
>  <excitation_energy_4> 
7.578 
 
>  <homo_energy> 
-7.706 
 
>  <homo_lumo_gap> 
9.875 
 
>  <logP> 
3.367 
 
>  <lumo_energy> 
2.169 
 
>  <melting_point> 
-5.98 
 
>  <molecular_refractivity> 
43.26 
 
>  <oscillator_strength_1> 
0.0031 
 
>  <oscillator_strength_2> 
0.0176 
 
>  <oscillator_strength_3> 
0.0225 
 
>  <oscillator_strength_4> 
0.0142 
 
>  <open_babel_can_smiles> 
CC1CCCCCCC1 
 
>  <mulliken_charges> 
27 
1   -0.447766 
2   -0.256761 
3   -0.25684 
4   -0.256841 
5   -0.264309 
6   -0.264309 
7   -0.254442 
8   -0.254446 
9   -0.078436 
10   0.138182 
11   0.138182 
12   0.138629 
13   0.126974 
14   0.132137 
15   0.127812 
16   0.125225 
17   0.125224 
18   0.127813 
19   0.128897 
20   0.13469 
21   0.134689 
22   0.128898 
23   0.12804 
24   0.126629 
25   0.126629 
26   0.12804 
27   0.117461 
 
>  <lowdin_charges> 
27 
1   -0.445509 
2   -0.28214 
3   -0.276814 
4   -0.276813 
5   -0.283892 
6   -0.283892 
7   -0.280736 
8   -0.280735 
9   -0.12068 
10   0.147081 
11   0.147081 
12   0.143923 
13   0.143666 
14   0.137336 
15   0.14054 
16   0.137437 
17   0.137437 
18   0.14054 
19   0.141613 
20   0.140677 
21   0.140677 
22   0.141613 
23   0.136981 
24   0.143698 
25   0.143698 
26   0.136981 
27   0.130233 
 
$$$$ 
 
