PCCDB-ID:  13002 
public computational chemistry database (PCCDB) project, http://pccdb.org 
 
  9  9  0  0  1  0  0  0  0  0999 V2000 
    0.9144    0.0702    0.1488 C   0  0  0  0  0  0  0  0  0  0  0  0 
    0.0563    2.2028   -0.9794 C   0  0  0  0  0  0  0  0  0  0  0  0 
    0.0366    0.7257   -0.8674 C   0  0  2  0  0  0  0  0  0  0  0  0 
    1.5354   -0.9476   -0.0603 O   0  0  0  0  0  0  0  0  0  0  0  0 
   -1.0141    1.5411   -0.3234 O   0  0  0  0  0  0  0  0  0  0  0  0 
    0.9564    0.6058    1.1232 H   0  0  0  0  0  0  0  0  0  0  0  0 
   -0.1763    2.6496   -1.9458 H   0  0  0  0  0  0  0  0  0  0  0  0 
    0.7152    2.7872   -0.3361 H   0  0  0  0  0  0  0  0  0  0  0  0 
   -0.2214    0.1246   -1.7385 H   0  0  0  0  0  0  0  0  0  0  0  0 
  1  6  1  0  0  0  0 
  2  3  1  0  0  0  0 
  2  8  1  0  0  0  0 
  2  5  1  0  0  0  0 
  3  9  1  6  0  0  0 
  3  5  1  0  0  0  0 
  3  1  1  0  0  0  0 
  4  1  2  0  0  0  0 
  7  2  1  0  0  0  0 
M  END 
>  <HBA> 
2 
 
>  <HBD> 
0 
 
>  <TPSA> 
29.6 
 
>  <cid> 
13002 
 
>  <dipole> 
2.46 
 
>  <excitation_energy_1> 
4.13 
 
>  <excitation_energy_2> 
5.761 
 
>  <excitation_energy_3> 
6.885 
 
>  <excitation_energy_4> 
7.049 
 
>  <homo_energy> 
-7.219 
 
>  <homo_lumo_gap> 
6.003 
 
>  <logP> 
-0.416 
 
>  <lumo_energy> 
-1.216 
 
>  <melting_point> 
20.78 
 
>  <molecular_refractivity> 
15.71 
 
>  <oscillator_strength_1> 
0.0002 
 
>  <oscillator_strength_2> 
0.0143 
 
>  <oscillator_strength_3> 
0.0742 
 
>  <oscillator_strength_4> 
0.1179 
 
>  <open_babel_can_smiles> 
C1O[C@@H]1C=O 
 
>  <mulliken_charges> 
9 
1   0.247593 
2   -0.105928 
3   0.027979 
4   -0.383426 
5   -0.421676 
6   0.122102 
7   0.172458 
8   0.165756 
9   0.175143 
 
>  <lowdin_charges> 
9 
1   0.044385 
2   -0.150439 
3   -0.055097 
4   -0.204093 
5   -0.258817 
6   0.127037 
7   0.165373 
8   0.160888 
9   0.170764 
 
$$$$ 
 
