PCCDB-ID:  69872 
public computational chemistry database (PCCDB) project, http://pccdb.org 
 
 22 23  0  0  0  0  0  0  0  0999 V2000 
   -2.4298   -0.7537    0.0384 C   0  0  0  0  0  0  0  0  0  0  0  0 
   -2.4529    0.6608    0.0611 C   0  0  0  0  0  0  0  0  0  0  0  0 
   -1.2282   -1.4262   -0.0268 C   0  0  0  0  0  0  0  0  0  0  0  0 
   -1.2740    1.3741    0.0200 C   0  0  0  0  0  0  0  0  0  0  0  0 
    1.2586   -1.3824   -0.1182 C   0  0  0  0  0  0  0  0  0  0  0  0 
    1.2112    1.4154   -0.1090 C   0  0  0  0  0  0  0  0  0  0  0  0 
    0.0026   -0.7209   -0.0705 C   0  0  0  0  0  0  0  0  0  0  0  0 
   -0.0207    0.7113   -0.0459 C   0  0  0  0  0  0  0  0  0  0  0  0 
    2.4439   -0.6810   -0.1577 C   0  0  0  0  0  0  0  0  0  0  0  0 
    2.4186    0.7549   -0.1750 C   0  0  0  0  0  0  0  0  0  0  0  0 
    3.7078   -1.2952   -0.2422 N   0  0  0  0  0  0  0  0  0  0  0  0 
    3.6633    1.4120   -0.2027 N   0  0  0  0  0  0  0  0  0  0  0  0 
   -3.3635   -1.3090    0.0710 H   0  0  0  0  0  0  0  0  0  0  0  0 
   -3.4043    1.1839    0.1118 H   0  0  0  0  0  0  0  0  0  0  0  0 
   -1.2078   -2.5139   -0.0438 H   0  0  0  0  0  0  0  0  0  0  0  0 
   -1.2895    2.4618    0.0379 H   0  0  0  0  0  0  0  0  0  0  0  0 
    1.2801   -2.4710   -0.1097 H   0  0  0  0  0  0  0  0  0  0  0  0 
    1.1946    2.5040   -0.1185 H   0  0  0  0  0  0  0  0  0  0  0  0 
    3.6733   -2.2965   -0.0828 H   0  0  0  0  0  0  0  0  0  0  0  0 
    4.3861   -0.8654    0.3824 H   0  0  0  0  0  0  0  0  0  0  0  0 
    3.5803    2.4113   -0.3567 H   0  0  0  0  0  0  0  0  0  0  0  0 
    4.2974    1.0049   -0.8861 H   0  0  0  0  0  0  0  0  0  0  0  0 
  1  2  1  0  0  0  0 
  1 13  1  0  0  0  0 
  2 14  1  0  0  0  0 
  3  1  2  0  0  0  0 
  4 16  1  0  0  0  0 
  4  2  2  0  0  0  0 
  5 17  1  0  0  0  0 
  5  7  2  0  0  0  0 
  6  8  2  0  0  0  0 
  7  8  1  0  0  0  0 
  7  3  1  0  0  0  0 
  8  4  1  0  0  0  0 
  9  5  1  0  0  0  0 
 10  9  2  0  0  0  0 
 10  6  1  0  0  0  0 
 11  9  1  0  0  0  0 
 11 19  1  0  0  0  0 
 11 20  1  0  0  0  0 
 12 10  1  0  0  0  0 
 15  3  1  0  0  0  0 
 18  6  1  0  0  0  0 
 21 12  1  0  0  0  0 
 22 12  1  0  0  0  0 
M  END 
>  <HBA> 
2 
 
>  <HBD> 
2 
 
>  <TPSA> 
52.04 
 
>  <cid> 
69872 
 
>  <dipole> 
2.16 
 
>  <excitation_energy_1> 
4.06 
 
>  <excitation_energy_2> 
4.176 
 
>  <excitation_energy_3> 
4.627 
 
>  <excitation_energy_4> 
4.631 
 
>  <homo_energy> 
-5.197 
 
>  <homo_lumo_gap> 
4.689 
 
>  <logP> 
3.167 
 
>  <lumo_energy> 
-0.509 
 
>  <melting_point> 
147.97 
 
>  <molecular_refractivity> 
52.76 
 
>  <oscillator_strength_1> 
0.0723 
 
>  <oscillator_strength_2> 
0.0295 
 
>  <oscillator_strength_3> 
0.0089 
 
>  <oscillator_strength_4> 
0.0007 
 
>  <open_babel_can_smiles> 
Nc1cc2ccccc2cc1N 
 
>  <mulliken_charges> 
22 
1   -0.140035 
2   -0.1401 
3   -0.199727 
4   -0.199703 
5   -0.274058 
6   -0.274132 
7   0.142195 
8   0.142309 
9   0.281327 
10   0.281295 
11   -0.811061 
12   -0.811249 
13   0.120809 
14   0.12078 
15   0.11918 
16   0.119184 
17   0.113501 
18   0.113528 
19   0.319373 
20   0.328584 
21   0.319393 
22   0.328608 
 
>  <lowdin_charges> 
22 
1   -0.168355 
2   -0.168126 
3   -0.161643 
4   -0.161641 
5   -0.202975 
6   -0.202941 
7   -0.003777 
8   -0.003815 
9   0.032045 
10   0.031812 
11   -0.499247 
12   -0.499008 
13   0.154677 
14   0.154488 
15   0.150381 
16   0.150376 
17   0.149045 
18   0.149037 
19   0.271354 
20   0.278515 
21   0.271409 
22   0.278389 
 
$$$$ 
 
