PCCDB-ID:  9321 
public computational chemistry database (PCCDB) project, http://pccdb.org 
 
  6  5  0  0  0  0  0  0  0  0999 V2000 
    1.0269    0.0461   -0.0190 N   0  0  0  0  0  0  0  0  0  0  0  0 
    2.5136    0.0595   -0.1029 N   0  0  0  0  0  0  0  0  0  0  0  0 
    0.7610   -0.6476   -0.7229 H   0  0  0  0  0  0  0  0  0  0  0  0 
    0.7610    0.9255   -0.4699 H   0  0  0  0  0  0  0  0  0  0  0  0 
    2.7795   -0.8199    0.3479 H   0  0  0  0  0  0  0  0  0  0  0  0 
    2.7795    0.7532    0.6010 H   0  0  0  0  0  0  0  0  0  0  0  0 
  2  1  1  0  0  0  0 
  2  5  1  0  0  0  0 
  2  6  1  0  0  0  0 
  3  1  1  0  0  0  0 
  4  1  1  0  0  0  0 
M  END 
>  <HBA> 
2 
 
>  <HBD> 
2 
 
>  <TPSA> 
52.04 
 
>  <cid> 
9321 
 
>  <dipole> 
0.0 
 
>  <excitation_energy_1> 
5.294 
 
>  <excitation_energy_2> 
5.749 
 
>  <excitation_energy_3> 
6.652 
 
>  <excitation_energy_4> 
7.292 
 
>  <homo_energy> 
-5.464 
 
>  <homo_lumo_gap> 
7.529 
 
>  <logP> 
0.219 
 
>  <lumo_energy> 
2.065 
 
>  <melting_point> 
85.92 
 
>  <molecular_refractivity> 
7.53 
 
>  <oscillator_strength_1> 
0.0 
 
>  <oscillator_strength_2> 
0.0501 
 
>  <oscillator_strength_3> 
0.0003 
 
>  <oscillator_strength_4> 
0.0861 
 
>  <open_babel_can_smiles> 
NN 
 
>  <mulliken_charges> 
6 
1   -0.613876 
2   -0.613919 
3   0.306945 
4   0.306951 
5   0.306951 
6   0.306948 
 
>  <lowdin_charges> 
6 
1   -0.508727 
2   -0.508732 
3   0.25464 
4   0.25409 
5   0.254088 
6   0.25464 
 
$$$$ 
 
