PCCDB-ID:  25609 
public computational chemistry database (PCCDB) project, http://pccdb.org 
 
 19 19  0  0  0  0  0  0  0  0999 V2000 
    0.8292    0.0309   -0.2719 C   0  0  0  0  0  0  0  0  0  0  0  0 
    2.7940   -0.1987    1.3422 C   0  0  0  0  0  0  0  0  0  0  0  0 
    2.6007    1.5329   -2.1078 C   0  0  0  0  0  0  0  0  0  0  0  0 
    4.4650    1.3095   -0.5751 C   0  0  0  0  0  0  0  0  0  0  0  0 
    4.2984   -1.5903   -0.7948 C   0  0  0  0  0  0  0  0  0  0  0  0 
    2.4313   -1.3685   -2.3243 C   0  0  0  0  0  0  0  0  0  0  0  0 
    2.3349   -0.0662   -0.0993 C   0  0  0  0  0  0  0  0  0  0  0  0 
    3.2202    0.7504   -1.0590 C   0  0  0  0  0  0  0  0  0  0  0  0 
    3.1293   -0.8268   -1.1773 C   0  0  0  0  0  0  0  0  0  0  0  0 
    2.0972    2.1731   -2.9348 N   0  0  0  0  0  0  0  0  0  0  0  0 
    5.4525    1.7713   -0.1765 N   0  0  0  0  0  0  0  0  0  0  0  0 
    5.2241   -2.2159   -0.4797 N   0  0  0  0  0  0  0  0  0  0  0  0 
    1.8634   -1.8168   -3.2319 N   0  0  0  0  0  0  0  0  0  0  0  0 
    0.4541    0.8899    0.2938 H   0  0  0  0  0  0  0  0  0  0  0  0 
    0.3590   -0.8741    0.1264 H   0  0  0  0  0  0  0  0  0  0  0  0 
    0.5226    0.1460   -1.3134 H   0  0  0  0  0  0  0  0  0  0  0  0 
    2.4598    0.6751    1.9111 H   0  0  0  0  0  0  0  0  0  0  0  0 
    3.8782   -0.2784    1.4428 H   0  0  0  0  0  0  0  0  0  0  0  0 
    2.3412   -1.0909    1.7867 H   0  0  0  0  0  0  0  0  0  0  0  0 
  1  7  1  0  0  0  0 
  1 15  1  0  0  0  0 
  1 14  1  0  0  0  0 
  2 18  1  0  0  0  0 
  2 19  1  0  0  0  0 
  2 17  1  0  0  0  0 
  3  8  1  0  0  0  0 
  4 11  3  0  0  0  0 
  5 12  3  0  0  0  0 
  6  9  1  0  0  0  0 
  7  2  1  0  0  0  0 
  8  4  1  0  0  0  0 
  8  7  1  0  0  0  0 
  9  8  1  0  0  0  0 
  9  5  1  0  0  0  0 
  9  7  1  0  0  0  0 
 10  3  3  0  0  0  0 
 13  6  3  0  0  0  0 
 16  1  1  0  0  0  0 
M  END 
>  <HBA> 
4 
 
>  <HBD> 
0 
 
>  <TPSA> 
95.16 
 
>  <cid> 
25609 
 
>  <dipole> 
5.34 
 
>  <excitation_energy_1> 
5.999 
 
>  <excitation_energy_2> 
6.03 
 
>  <excitation_energy_3> 
6.285 
 
>  <excitation_energy_4> 
6.561 
 
>  <homo_energy> 
-9.007 
 
>  <homo_lumo_gap> 
6.762 
 
>  <logP> 
1.093 
 
>  <lumo_energy> 
-2.245 
 
>  <melting_point> 
185.69 
 
>  <molecular_refractivity> 
41.48 
 
>  <oscillator_strength_1> 
0.0121 
 
>  <oscillator_strength_2> 
0.1245 
 
>  <oscillator_strength_3> 
0.0189 
 
>  <oscillator_strength_4> 
0.0036 
 
>  <open_babel_can_smiles> 
N#CC1(C#N)C(C1(C)C)(C#N)C#N 
 
>  <mulliken_charges> 
19 
1   -0.477023 
2   -0.477301 
3   0.372016 
4   0.372012 
5   0.372003 
6   0.371585 
7   0.100834 
8   -0.005766 
9   -0.005346 
10   -0.441588 
11   -0.441381 
12   -0.441545 
13   -0.441287 
14   0.185464 
15   0.18589 
16   0.199976 
17   0.185814 
18   0.200039 
19   0.185604 
 
>  <lowdin_charges> 
19 
1   -0.435551 
2   -0.435045 
3   -0.005969 
4   -0.006398 
5   -0.006325 
6   -0.00601 
7   0.050992 
8   0.006431 
9   0.006437 
10   -0.060377 
11   -0.060431 
12   -0.060363 
13   -0.060432 
14   0.177408 
15   0.177318 
16   0.182118 
17   0.177433 
18   0.181461 
19   0.177304 
 
$$$$ 
 
