PCCDB-ID:  65066 
public computational chemistry database (PCCDB) project, http://pccdb.org 
 
 15 14  0  0  0  0  0  0  0  0999 V2000 
    2.7725   -1.1407   -0.6404 C   0  0  0  0  0  0  0  0  0  0  0  0 
    4.6668    3.0342    0.4257 C   0  0  0  0  0  0  0  0  0  0  0  0 
    4.0921   -0.4063   -0.7959 C   0  0  0  0  0  0  0  0  0  0  0  0 
    5.0024    1.7211   -0.2412 C   0  0  0  0  0  0  0  0  0  0  0  0 
    6.0935    1.3587   -0.7910 N   0  0  0  0  0  0  0  0  0  0  0  0 
    3.9343    0.8923   -0.1934 O   0  0  0  0  0  0  0  0  0  0  0  0 
    2.8469   -2.1396   -1.0843 H   0  0  0  0  0  0  0  0  0  0  0  0 
    1.9624   -0.6007   -1.1413 H   0  0  0  0  0  0  0  0  0  0  0  0 
    2.5085   -1.2524    0.4164 H   0  0  0  0  0  0  0  0  0  0  0  0 
    5.5236    3.7122    0.4130 H   0  0  0  0  0  0  0  0  0  0  0  0 
    4.3614    2.8628    1.4636 H   0  0  0  0  0  0  0  0  0  0  0  0 
    3.8247    3.5129   -0.0859 H   0  0  0  0  0  0  0  0  0  0  0  0 
    4.3730   -0.2804   -1.8471 H   0  0  0  0  0  0  0  0  0  0  0  0 
    4.9166   -0.9312   -0.3010 H   0  0  0  0  0  0  0  0  0  0  0  0 
    6.7823    2.1094   -0.7334 H   0  0  0  0  0  0  0  0  0  0  0  0 
  1  9  1  0  0  0  0 
  2 11  1  0  0  0  0 
  3  1  1  0  0  0  0 
  3 14  1  0  0  0  0 
  3  6  1  0  0  0  0 
  4  6  1  0  0  0  0 
  4  2  1  0  0  0  0 
  5 15  1  0  0  0  0 
  5  4  2  0  0  0  0 
  7  1  1  0  0  0  0 
  8  1  1  0  0  0  0 
 10  2  1  0  0  0  0 
 12  2  1  0  0  0  0 
 13  3  1  0  0  0  0 
M  END 
>  <HBA> 
2 
 
>  <HBD> 
1 
 
>  <TPSA> 
33.08 
 
>  <cid> 
65066 
 
>  <dipole> 
1.2 
 
>  <excitation_energy_1> 
6.475 
 
>  <excitation_energy_2> 
6.591 
 
>  <excitation_energy_3> 
6.727 
 
>  <excitation_energy_4> 
7.227 
 
>  <homo_energy> 
-6.991 
 
>  <homo_lumo_gap> 
7.954 
 
>  <logP> 
1.12 
 
>  <lumo_energy> 
0.963 
 
>  <melting_point> 
-2.89 
 
>  <molecular_refractivity> 
26.02 
 
>  <oscillator_strength_1> 
0.0016 
 
>  <oscillator_strength_2> 
0.0136 
 
>  <oscillator_strength_3> 
0.0385 
 
>  <oscillator_strength_4> 
0.0012 
 
>  <open_babel_can_smiles> 
CCOC(=N)C 
 
>  <mulliken_charges> 
15 
1   -0.458565 
2   -0.507537 
3   -0.015396 
4   0.50433 
5   -0.625008 
6   -0.464332 
7   0.148032 
8   0.156737 
9   0.156811 
10   0.154308 
11   0.178191 
12   0.178207 
13   0.155662 
14   0.154766 
15   0.283793 
 
>  <lowdin_charges> 
15 
1   -0.448891 
2   -0.461852 
3   -0.119473 
4   0.133112 
5   -0.431037 
6   -0.204793 
7   0.156055 
8   0.157079 
9   0.154812 
10   0.160303 
11   0.17245 
12   0.174319 
13   0.148583 
14   0.150815 
15   0.258518 
 
$$$$ 
 
