PCCDB-ID:  18355 
public computational chemistry database (PCCDB) project, http://pccdb.org 
 
 29 31  0  0  0  0  0  0  0  0999 V2000 
    3.0381    1.9675    1.4817 C   0  0  0  0  0  0  0  0  0  0  0  0 
   -0.5006    6.7724   -4.9672 C   0  0  0  0  0  0  0  0  0  0  0  0 
    0.2891    7.8474   -4.5497 C   0  0  0  0  0  0  0  0  0  0  0  0 
   -0.2550    5.4666   -4.5149 C   0  0  0  0  0  0  0  0  0  0  0  0 
    1.3520    7.6372   -3.6605 C   0  0  0  0  0  0  0  0  0  0  0  0 
    1.6096    1.7352   -2.3203 C   0  0  0  0  0  0  0  0  0  0  0  0 
    0.9084    2.6960   -3.0552 C   0  0  0  0  0  0  0  0  0  0  0  0 
    3.1066    3.4290   -1.4346 C   0  0  0  0  0  0  0  0  0  0  0  0 
    3.5753    1.0328    0.4198 C   0  0  0  0  0  0  0  0  0  0  0  0 
    2.6942    2.0804   -1.4902 C   0  0  0  0  0  0  0  0  0  0  0  0 
    0.7989    5.2562   -3.6328 C   0  0  0  0  0  0  0  0  0  0  0  0 
    1.3099    4.0267   -2.9824 C   0  0  0  0  0  0  0  0  0  0  0  0 
    1.5918    6.3462   -3.2161 C   0  0  0  0  0  0  0  0  0  0  0  0 
    2.4098    4.3702   -2.1738 C   0  0  0  0  0  0  0  0  0  0  0  0 
    2.6463    5.8483   -2.2750 C   0  0  0  0  0  0  0  0  0  0  0  0 
    3.3844    1.0554   -0.8353 N   0  0  0  0  0  0  0  0  0  0  0  0 
    4.3431    0.0104    0.8896 O   0  0  0  0  0  0  0  0  0  0  0  0 
    3.5065    6.5007   -1.7093 O   0  0  0  0  0  0  0  0  0  0  0  0 
    2.3542    2.7030    1.0571 H   0  0  0  0  0  0  0  0  0  0  0  0 
    3.8569    2.5025    1.9785 H   0  0  0  0  0  0  0  0  0  0  0  0 
    2.5019    1.3921    2.2473 H   0  0  0  0  0  0  0  0  0  0  0  0 
   -1.3217    6.9493   -5.6570 H   0  0  0  0  0  0  0  0  0  0  0  0 
    0.0760    8.8474   -4.9165 H   0  0  0  0  0  0  0  0  0  0  0  0 
   -0.8815    4.6454   -4.8528 H   0  0  0  0  0  0  0  0  0  0  0  0 
    1.9805    8.4561   -3.3216 H   0  0  0  0  0  0  0  0  0  0  0  0 
    1.3261    0.6886   -2.3767 H   0  0  0  0  0  0  0  0  0  0  0  0 
    0.0706    2.3917   -3.6774 H   0  0  0  0  0  0  0  0  0  0  0  0 
    3.9687    3.7246   -0.8433 H   0  0  0  0  0  0  0  0  0  0  0  0 
    4.3905    0.0623    1.8567 H   0  0  0  0  0  0  0  0  0  0  0  0 
  1 20  1  0  0  0  0 
  1 21  1  0  0  0  0 
  2  3  2  0  0  0  0 
  2  4  1  0  0  0  0 
  3  5  1  0  0  0  0 
  4 11  2  0  0  0  0 
  5 25  1  0  0  0  0 
  5 13  2  0  0  0  0 
  6 10  2  0  0  0  0 
  7 12  2  0  0  0  0 
  7  6  1  0  0  0  0 
  8 28  1  0  0  0  0 
  9 17  1  0  0  0  0 
  9  1  1  0  0  0  0 
 10  8  1  0  0  0  0 
 10 16  1  0  0  0  0 
 11 13  1  0  0  0  0 
 11 12  1  0  0  0  0 
 12 14  1  0  0  0  0 
 13 15  1  0  0  0  0 
 14  8  2  0  0  0  0 
 15 14  1  0  0  0  0 
 15 18  2  0  0  0  0 
 16  9  2  0  0  0  0 
 17 29  1  0  0  0  0 
 19  1  1  0  0  0  0 
 22  2  1  0  0  0  0 
 23  3  1  0  0  0  0 
 24  4  1  0  0  0  0 
 26  6  1  0  0  0  0 
 27  7  1  0  0  0  0 
M  END 
>  <HBA> 
3 
 
>  <HBD> 
1 
 
>  <TPSA> 
46.17 
 
>  <cid> 
18355 
 
>  <dipole> 
3.66 
 
>  <excitation_energy_1> 
2.731 
 
>  <excitation_energy_2> 
3.174 
 
>  <excitation_energy_3> 
3.91 
 
>  <excitation_energy_4> 
4.289 
 
>  <homo_energy> 
-5.657 
 
>  <homo_lumo_gap> 
3.513 
 
>  <logP> 
2.929 
 
>  <lumo_energy> 
-2.144 
 
>  <melting_point> 
156.0 
 
>  <molecular_refractivity> 
69.62 
 
>  <oscillator_strength_1> 
0.0167 
 
>  <oscillator_strength_2> 
0.0 
 
>  <oscillator_strength_3> 
0.0131 
 
>  <oscillator_strength_4> 
0.0346 
 
>  <open_babel_can_smiles> 
C/C(=N\c1ccc2c(c1)C(=O)c1c2cccc1)/O 
 
>  <mulliken_charges> 
29 
1   -0.556271 
2   -0.127574 
3   -0.136288 
4   -0.195978 
5   -0.177993 
6   -0.154482 
7   -0.201007 
8   -0.220654 
9   0.485148 
10   0.250234 
11   0.078755 
12   0.076872 
13   0.044428 
14   0.040791 
15   0.338825 
16   -0.470612 
17   -0.565256 
18   -0.466996 
19   0.199229 
20   0.184288 
21   0.172327 
22   0.136524 
23   0.136017 
24   0.134982 
25   0.15476 
26   0.142211 
27   0.136246 
28   0.15089 
29   0.410586 
 
>  <lowdin_charges> 
29 
1   -0.485365 
2   -0.136317 
3   -0.159762 
4   -0.165246 
5   -0.127587 
6   -0.153977 
7   -0.153918 
8   -0.158903 
9   0.148081 
10   0.048373 
11   0.007731 
12   -0.013333 
13   -0.051617 
14   -0.047416 
15   0.154076 
16   -0.16947 
17   -0.351522 
18   -0.227135 
19   0.185685 
20   0.175637 
21   0.170107 
22   0.161564 
23   0.160808 
24   0.16122 
25   0.172946 
26   0.166558 
27   0.161489 
28   0.17144 
29   0.355852 
 
$$$$ 
 
