PCCDB-ID:  7472 
public computational chemistry database (PCCDB) project, http://pccdb.org 
 
 22 22  0  0  0  0  0  0  0  0999 V2000 
    1.9066   -1.7785   -0.1402 C   0  0  0  0  0  0  0  0  0  0  0  0 
    1.5594    0.6470   -0.4419 C   0  0  0  0  0  0  0  0  0  0  0  0 
    4.2082    1.3861    2.7854 C   0  0  0  0  0  0  0  0  0  0  0  0 
    4.5646   -0.9636    3.0605 C   0  0  0  0  0  0  0  0  0  0  0  0 
    3.4046    1.1379    1.6756 C   0  0  0  0  0  0  0  0  0  0  0  0 
    3.7625   -1.2184    1.9513 C   0  0  0  0  0  0  0  0  0  0  0  0 
    4.8082    0.3431    3.5022 C   0  0  0  0  0  0  0  0  0  0  0  0 
    3.1665   -0.1735    1.2157 C   0  0  0  0  0  0  0  0  0  0  0  0 
    5.5656    0.5942    4.6651 N   0  0  0  0  0  0  0  0  0  0  0  0 
    2.3938   -0.4262    0.0691 N   0  0  0  0  0  0  0  0  0  0  0  0 
    1.3219   -1.8078   -1.0628 H   0  0  0  0  0  0  0  0  0  0  0  0 
    1.2720   -2.1480    0.6842 H   0  0  0  0  0  0  0  0  0  0  0  0 
    2.7411   -2.4783   -0.2624 H   0  0  0  0  0  0  0  0  0  0  0  0 
    1.0320    0.2951   -1.3319 H   0  0  0  0  0  0  0  0  0  0  0  0 
    2.1712    1.5042   -0.7449 H   0  0  0  0  0  0  0  0  0  0  0  0 
    0.8100    1.0055    0.2856 H   0  0  0  0  0  0  0  0  0  0  0  0 
    4.3618    2.4148    3.1062 H   0  0  0  0  0  0  0  0  0  0  0  0 
    5.0020   -1.8020    3.5993 H   0  0  0  0  0  0  0  0  0  0  0  0 
    2.9640    1.9870    1.1666 H   0  0  0  0  0  0  0  0  0  0  0  0 
    3.6089   -2.2512    1.6615 H   0  0  0  0  0  0  0  0  0  0  0  0 
    6.0086    1.5065    4.6658 H   0  0  0  0  0  0  0  0  0  0  0  0 
    6.2586   -0.1216    4.8548 H   0  0  0  0  0  0  0  0  0  0  0  0 
  1 10  1  0  0  0  0 
  1 12  1  0  0  0  0 
  2 10  1  0  0  0  0 
  2 16  1  0  0  0  0 
  3 17  1  0  0  0  0 
  3  7  2  0  0  0  0 
  4  7  1  0  0  0  0 
  4 18  1  0  0  0  0 
  5  3  1  0  0  0  0 
  6  4  2  0  0  0  0 
  7  9  1  0  0  0  0 
  8  5  2  0  0  0  0 
  8  6  1  0  0  0  0 
  9 21  1  0  0  0  0 
  9 22  1  0  0  0  0 
 10  8  1  0  0  0  0 
 11  1  1  0  0  0  0 
 13  1  1  0  0  0  0 
 14  2  1  0  0  0  0 
 15  2  1  0  0  0  0 
 19  5  1  0  0  0  0 
 20  6  1  0  0  0  0 
M  END 
>  <HBA> 
2 
 
>  <HBD> 
1 
 
>  <TPSA> 
29.26 
 
>  <cid> 
7472 
 
>  <dipole> 
0.94 
 
>  <excitation_energy_1> 
4.018 
 
>  <excitation_energy_2> 
4.028 
 
>  <excitation_energy_3> 
4.246 
 
>  <excitation_energy_4> 
4.583 
 
>  <homo_energy> 
-4.435 
 
>  <homo_lumo_gap> 
4.811 
 
>  <logP> 
1.916 
 
>  <lumo_energy> 
0.376 
 
>  <melting_point> 
62.82 
 
>  <molecular_refractivity> 
45.05 
 
>  <oscillator_strength_1> 
0.0492 
 
>  <oscillator_strength_2> 
0.0168 
 
>  <oscillator_strength_3> 
0.0058 
 
>  <oscillator_strength_4> 
0.0002 
 
>  <open_babel_can_smiles> 
CN(c1ccc(cc1)N)C 
 
>  <mulliken_charges> 
22 
1   -0.307195 
2   -0.307015 
3   -0.18109 
4   -0.180879 
5   -0.199337 
6   -0.19884 
7   0.296069 
8   0.35449 
9   -0.787462 
10   -0.471018 
11   0.148866 
12   0.141806 
13   0.159152 
14   0.148957 
15   0.159259 
16   0.14134 
17   0.111211 
18   0.111249 
19   0.119054 
20   0.118958 
21   0.311215 
22   0.31121 
 
>  <lowdin_charges> 
22 
1   -0.352431 
2   -0.353467 
3   -0.189821 
4   -0.191604 
5   -0.196655 
6   -0.194237 
7   0.03657 
8   0.038515 
9   -0.502094 
10   -0.133022 
11   0.153739 
12   0.13598 
13   0.15199 
14   0.154125 
15   0.152267 
16   0.135652 
17   0.149147 
18   0.151205 
19   0.158423 
20   0.156304 
21   0.269196 
22   0.270217 
 
$$$$ 
 
