PCCDB-ID:  11909 
public computational chemistry database (PCCDB) project, http://pccdb.org 
 
 16 16  0  0  0  0  0  0  0  0999 V2000 
    0.8644   -0.3619    0.0594 C   0  0  0  0  0  0  0  0  0  0  0  0 
    4.5646   -1.2923   -0.1511 C   0  0  0  0  0  0  0  0  0  0  0  0 
    5.1972   -0.0452   -0.0654 C   0  0  0  0  0  0  0  0  0  0  0  0 
    3.1731   -1.3886   -0.1126 C   0  0  0  0  0  0  0  0  0  0  0  0 
    4.4246    1.1000    0.0577 C   0  0  0  0  0  0  0  0  0  0  0  0 
    2.3697   -0.2490    0.0117 C   0  0  0  0  0  0  0  0  0  0  0  0 
    3.0259    0.9974    0.0959 C   0  0  0  0  0  0  0  0  0  0  0  0 
    2.1761    2.1497    0.2192 N   0  0  0  0  0  0  0  0  0  0  0  0 
    2.7602    3.2226    0.3032 O   0  0  0  0  0  0  0  0  0  0  0  0 
    0.5543   -1.4011   -0.0856 H   0  0  0  0  0  0  0  0  0  0  0  0 
    0.3896    0.2530   -0.7110 H   0  0  0  0  0  0  0  0  0  0  0  0 
    0.4687   -0.0181    1.0211 H   0  0  0  0  0  0  0  0  0  0  0  0 
    5.1612   -2.1956   -0.2484 H   0  0  0  0  0  0  0  0  0  0  0  0 
    6.2810    0.0223   -0.0967 H   0  0  0  0  0  0  0  0  0  0  0  0 
    2.7000   -2.3649   -0.1798 H   0  0  0  0  0  0  0  0  0  0  0  0 
    4.8640    2.0896    0.1283 H   0  0  0  0  0  0  0  0  0  0  0  0 
  1 12  1  0  0  0  0 
  2  4  2  0  0  0  0 
  2  3  1  0  0  0  0 
  3  5  2  0  0  0  0 
  4  6  1  0  0  0  0 
  5  7  1  0  0  0  0 
  5 16  1  0  0  0  0 
  6  1  1  0  0  0  0 
  6  7  2  0  0  0  0 
  7  8  1  0  0  0  0 
  8  9  2  0  0  0  0 
 10  1  1  0  0  0  0 
 11  1  1  0  0  0  0 
 13  2  1  0  0  0  0 
 14  3  1  0  0  0  0 
 15  4  1  0  0  0  0 
M  END 
>  <HBA> 
2 
 
>  <HBD> 
0 
 
>  <TPSA> 
29.43 
 
>  <cid> 
11909 
 
>  <dipole> 
3.55 
 
>  <excitation_energy_1> 
1.439 
 
>  <excitation_energy_2> 
3.672 
 
>  <excitation_energy_3> 
4.318 
 
>  <excitation_energy_4> 
4.507 
 
>  <homo_energy> 
-5.837 
 
>  <homo_lumo_gap> 
3.184 
 
>  <logP> 
2.393 
 
>  <lumo_energy> 
-2.653 
 
>  <melting_point> 
35.24 
 
>  <molecular_refractivity> 
36.86 
 
>  <oscillator_strength_1> 
0.0002 
 
>  <oscillator_strength_2> 
0.0325 
 
>  <oscillator_strength_3> 
0.219 
 
>  <oscillator_strength_4> 
0.0001 
 
>  <open_babel_can_smiles> 
O=Nc1ccccc1C 
 
>  <mulliken_charges> 
16 
1   -0.517311 
2   -0.103683 
3   -0.145618 
4   -0.196734 
5   -0.119005 
6   0.168897 
7   0.162757 
8   -0.058255 
9   -0.292996 
10   0.151707 
11   0.182379 
12   0.180074 
13   0.143507 
14   0.143791 
15   0.136231 
16   0.16426 
 
>  <lowdin_charges> 
16 
1   -0.441642 
2   -0.126717 
3   -0.154257 
4   -0.168148 
5   -0.12964 
6   0.028392 
7   -0.034347 
8   0.040884 
9   -0.182557 
10   0.154967 
11   0.175241 
12   0.172969 
13   0.165104 
14   0.161929 
15   0.16089 
16   0.176932 
 
$$$$ 
 
