PCCDB-ID:  55974 
public computational chemistry database (PCCDB) project, http://pccdb.org 
 
 20 20  0  0  0  0  0  0  0  0999 V2000 
    0.2572   -0.5708    0.4428 C   0  0  0  0  0  0  0  0  0  0  0  0 
    7.7251    1.8239   -1.6534 C   0  0  0  0  0  0  0  0  0  0  0  0 
    2.3975    0.9136    0.1025 C   0  0  0  0  0  0  0  0  0  0  0  0 
    1.7015   -0.2432    0.2869 C   0  0  0  0  0  0  0  0  0  0  0  0 
    3.7517    0.4875    0.0325 C   0  0  0  0  0  0  0  0  0  0  0  0 
    4.9441    1.3697   -0.1609 C   0  0  0  0  0  0  0  0  0  0  0  0 
    7.3538    1.4128   -0.2900 N   0  0  0  0  0  0  0  0  0  0  0  0 
    6.1311    0.7141   -0.2804 N   0  0  0  0  0  0  0  0  0  0  0  0 
    3.8671   -0.8170    0.1651 N   0  0  0  0  0  0  0  0  0  0  0  0 
    4.8365    2.5926   -0.1937 O   0  0  0  0  0  0  0  0  0  0  0  0 
    2.5691   -1.2870    0.3263 O   0  0  0  0  0  0  0  0  0  0  0  0 
   -0.3371    0.3459    0.4370 H   0  0  0  0  0  0  0  0  0  0  0  0 
    0.0752   -1.0997    1.3850 H   0  0  0  0  0  0  0  0  0  0  0  0 
   -0.0899   -1.2159   -0.3725 H   0  0  0  0  0  0  0  0  0  0  0  0 
    8.6472    2.4102   -1.5835 H   0  0  0  0  0  0  0  0  0  0  0  0 
    6.9529    2.4232   -2.1543 H   0  0  0  0  0  0  0  0  0  0  0  0 
    7.9303    0.9314   -2.2517 H   0  0  0  0  0  0  0  0  0  0  0  0 
    2.0295    1.9246    0.0285 H   0  0  0  0  0  0  0  0  0  0  0  0 
    7.1957    2.2530    0.2672 H   0  0  0  0  0  0  0  0  0  0  0  0 
    6.1821   -0.2737   -0.0635 H   0  0  0  0  0  0  0  0  0  0  0  0 
  1 13  1  0  0  0  0 
  2 15  1  0  0  0  0 
  2  7  1  0  0  0  0 
  3  4  2  0  0  0  0 
  4 11  1  0  0  0  0 
  4  1  1  0  0  0  0 
  5  3  1  0  0  0  0 
  5  9  2  0  0  0  0 
  6  5  1  0  0  0  0 
  7  8  1  0  0  0  0 
  7 19  1  0  0  0  0 
  8  6  1  0  0  0  0 
  8 20  1  0  0  0  0 
  9 11  1  0  0  0  0 
 10  6  2  0  0  0  0 
 12  1  1  0  0  0  0 
 14  1  1  0  0  0  0 
 16  2  1  0  0  0  0 
 17  2  1  0  0  0  0 
 18  3  1  0  0  0  0 
M  END 
>  <HBA> 
5 
 
>  <HBD> 
2 
 
>  <TPSA> 
67.16 
 
>  <cid> 
55974 
 
>  <dipole> 
2.1 
 
>  <excitation_energy_1> 
4.493 
 
>  <excitation_energy_2> 
4.793 
 
>  <excitation_energy_3> 
5.413 
 
>  <excitation_energy_4> 
5.73 
 
>  <homo_energy> 
-6.457 
 
>  <homo_lumo_gap> 
5.26 
 
>  <logP> 
0.629 
 
>  <lumo_energy> 
-1.197 
 
>  <melting_point> 
112.14 
 
>  <molecular_refractivity> 
37.27 
 
>  <oscillator_strength_1> 
0.0227 
 
>  <oscillator_strength_2> 
0.0101 
 
>  <oscillator_strength_3> 
0.0681 
 
>  <oscillator_strength_4> 
0.0137 
 
>  <open_babel_can_smiles> 
CNNC(=O)c1noc(c1)C 
 
>  <mulliken_charges> 
20 
1   -0.528633 
2   -0.295569 
3   -0.279311 
4   0.417997 
5   0.26932 
6   0.587385 
7   -0.409719 
8   -0.502134 
9   -0.252363 
10   -0.532079 
11   -0.360433 
12   0.179281 
13   0.187769 
14   0.187785 
15   0.153892 
16   0.159461 
17   0.159013 
18   0.171494 
19   0.325856 
20   0.360986 
 
>  <lowdin_charges> 
20 
1   -0.441706 
2   -0.365116 
3   -0.223557 
4   0.099172 
5   -0.007286 
6   0.143405 
7   -0.279126 
8   -0.205275 
9   -0.087521 
10   -0.307559 
11   -0.066001 
12   0.175966 
13   0.177945 
14   0.178534 
15   0.155472 
16   0.14656 
17   0.153813 
18   0.189724 
19   0.26637 
20   0.296184 
 
$$$$ 
 
