PCCDB-ID:  39490 
public computational chemistry database (PCCDB) project, http://pccdb.org 
 
 24 26  0  0  0  0  0  0  0  0999 V2000 
   -3.0882    1.1445   -0.3552 C   0  0  0  0  0  0  0  0  0  0  0  0 
   -3.4358   -0.1767    0.3546 C   0  0  0  0  0  0  0  0  0  0  0  0 
   -1.6867    1.6640    0.0306 C   0  0  0  0  0  0  0  0  0  0  0  0 
   -2.4609   -1.3131   -0.0258 C   0  0  0  0  0  0  0  0  0  0  0  0 
    2.4402   -1.2468   -0.0277 C   0  0  0  0  0  0  0  0  0  0  0  0 
    3.3778   -0.2122   -0.0030 C   0  0  0  0  0  0  0  0  0  0  0  0 
    1.7905    1.4591    0.0378 C   0  0  0  0  0  0  0  0  0  0  0  0 
   -0.6953    0.5346    0.0127 C   0  0  0  0  0  0  0  0  0  0  0  0 
    0.7515    0.5195    0.0159 C   0  0  0  0  0  0  0  0  0  0  0  0 
   -1.0753   -0.7687   -0.0143 C   0  0  0  0  0  0  0  0  0  0  0  0 
    1.1149   -0.8397   -0.0173 C   0  0  0  0  0  0  0  0  0  0  0  0 
    3.0769    1.1004    0.0285 N   0  0  0  0  0  0  0  0  0  0  0  0 
    0.0050   -1.6342   -0.0366 O   0  0  0  0  0  0  0  0  0  0  0  0 
   -3.8423    1.9044   -0.1196 H   0  0  0  0  0  0  0  0  0  0  0  0 
   -3.1258    0.9881   -1.4420 H   0  0  0  0  0  0  0  0  0  0  0  0 
   -4.4615   -0.4777    0.1133 H   0  0  0  0  0  0  0  0  0  0  0  0 
   -3.3977   -0.0232    1.4414 H   0  0  0  0  0  0  0  0  0  0  0  0 
   -1.7173    2.1243    1.0295 H   0  0  0  0  0  0  0  0  0  0  0  0 
   -1.3789    2.4602   -0.6596 H   0  0  0  0  0  0  0  0  0  0  0  0 
   -2.7041   -1.7118   -1.0222 H   0  0  0  0  0  0  0  0  0  0  0  0 
   -2.5500   -2.1549    0.6726 H   0  0  0  0  0  0  0  0  0  0  0  0 
    2.7323   -2.2910   -0.0537 H   0  0  0  0  0  0  0  0  0  0  0  0 
    4.4394   -0.4510   -0.0092 H   0  0  0  0  0  0  0  0  0  0  0  0 
    1.5846    2.5282    0.0641 H   0  0  0  0  0  0  0  0  0  0  0  0 
  1 14  1  0  0  0  0 
  1  3  1  0  0  0  0 
  1  2  1  0  0  0  0 
  2 17  1  0  0  0  0 
  3 18  1  0  0  0  0 
  4 10  1  0  0  0  0 
  4  2  1  0  0  0  0 
  4 21  1  0  0  0  0 
  5 11  2  0  0  0  0 
  5  6  1  0  0  0  0 
  6 12  2  0  0  0  0 
  7 24  1  0  0  0  0 
  8  9  1  0  0  0  0 
  8  3  1  0  0  0  0 
  9  7  2  0  0  0  0 
 10  8  2  0  0  0  0 
 11  9  1  0  0  0  0 
 12  7  1  0  0  0  0 
 13 11  1  0  0  0  0 
 13 10  1  0  0  0  0 
 15  1  1  0  0  0  0 
 16  2  1  0  0  0  0 
 19  3  1  0  0  0  0 
 20  4  1  0  0  0  0 
 22  5  1  0  0  0  0 
 23  6  1  0  0  0  0 
M  END 
>  <HBA> 
2 
 
>  <HBD> 
0 
 
>  <TPSA> 
26.03 
 
>  <cid> 
39490 
 
>  <dipole> 
3.32 
 
>  <excitation_energy_1> 
4.796 
 
>  <excitation_energy_2> 
4.91 
 
>  <excitation_energy_3> 
5.093 
 
>  <excitation_energy_4> 
5.371 
 
>  <homo_energy> 
-5.899 
 
>  <homo_lumo_gap> 
5.353 
 
>  <logP> 
2.707 
 
>  <lumo_energy> 
-0.547 
 
>  <melting_point> 
93.31 
 
>  <molecular_refractivity> 
51.44 
 
>  <oscillator_strength_1> 
0.0882 
 
>  <oscillator_strength_2> 
0.0009 
 
>  <oscillator_strength_3> 
0.1676 
 
>  <oscillator_strength_4> 
0.0038 
 
>  <open_babel_can_smiles> 
C1CCc2c(C1)oc1c2cncc1 
 
>  <mulliken_charges> 
24 
1   -0.273518 
2   -0.272415 
3   -0.334556 
4   -0.352579 
5   -0.207201 
6   0.02556 
7   -0.026052 
8   0.064725 
9   0.053373 
10   0.291346 
11   0.353806 
12   -0.427845 
13   -0.524423 
14   0.140055 
15   0.144074 
16   0.142115 
17   0.146813 
18   0.153423 
19   0.151991 
20   0.162525 
21   0.163564 
22   0.146983 
23   0.140235 
24   0.138003 
 
>  <lowdin_charges> 
24 
1   -0.273078 
2   -0.269263 
3   -0.269844 
4   -0.276947 
5   -0.193736 
6   -0.096252 
7   -0.09437 
8   -0.064836 
9   -0.053622 
10   0.071361 
11   0.101249 
12   -0.161154 
13   -0.117888 
14   0.149984 
15   0.143229 
16   0.149207 
17   0.144805 
18   0.151687 
19   0.156225 
20   0.158136 
21   0.163834 
22   0.171843 
23   0.155441 
24   0.153989 
 
$$$$ 
 
