PCCDB-ID:  19966 
public computational chemistry database (PCCDB) project, http://pccdb.org 
 
 18 17  0  0  0  0  0  0  0  0999 V2000 
    0.9537   -0.7160    0.5921 C   0  0  0  0  0  0  0  0  0  0  0  0 
    6.5088    1.3452    2.7420 C   0  0  0  0  0  0  0  0  0  0  0  0 
    2.4400   -0.6218    0.7897 C   0  0  0  0  0  0  0  0  0  0  0  0 
    4.9953    1.2042    2.5545 C   0  0  0  0  0  0  0  0  0  0  0  0 
    3.1244    0.5094    0.9799 C   0  0  0  0  0  0  0  0  0  0  0  0 
    4.6115    0.6045    1.1882 C   0  0  0  0  0  0  0  0  0  0  0  0 
    0.7074   -1.1751   -0.3753 H   0  0  0  0  0  0  0  0  0  0  0  0 
    0.4793    0.2708    0.6277 H   0  0  0  0  0  0  0  0  0  0  0  0 
    0.4870   -1.3443    1.3632 H   0  0  0  0  0  0  0  0  0  0  0  0 
    6.7519    1.7762    3.7199 H   0  0  0  0  0  0  0  0  0  0  0  0 
    6.9451    1.9951    1.9733 H   0  0  0  0  0  0  0  0  0  0  0  0 
    7.0097    0.3715    2.6737 H   0  0  0  0  0  0  0  0  0  0  0  0 
    2.9869   -1.5669    0.7679 H   0  0  0  0  0  0  0  0  0  0  0  0 
    4.5181    2.1884    2.6636 H   0  0  0  0  0  0  0  0  0  0  0  0 
    4.5775    0.5728    3.3497 H   0  0  0  0  0  0  0  0  0  0  0  0 
    2.5780    1.4556    1.0051 H   0  0  0  0  0  0  0  0  0  0  0  0 
    5.0650   -0.3908    1.0843 H   0  0  0  0  0  0  0  0  0  0  0  0 
    5.0549    1.2304    0.3975 H   0  0  0  0  0  0  0  0  0  0  0  0 
  1  8  1  0  0  0  0 
  1  3  1  0  0  0  0 
  1  9  1  0  0  0  0 
  2 10  1  0  0  0  0 
  3  5  2  0  0  0  0 
  4 14  1  0  0  0  0 
  4  2  1  0  0  0  0 
  4 15  1  0  0  0  0 
  5 16  1  0  0  0  0 
  5  6  1  0  0  0  0 
  6  4  1  0  0  0  0 
  7  1  1  0  0  0  0 
 11  2  1  0  0  0  0 
 12  2  1  0  0  0  0 
 13  3  1  0  0  0  0 
 17  6  1  0  0  0  0 
 18  6  1  0  0  0  0 
M  END 
>  <HBA> 
0 
 
>  <HBD> 
0 
 
>  <TPSA> 
0.0 
 
>  <cid> 
19966 
 
>  <dipole> 
0.06 
 
>  <excitation_energy_1> 
6.145 
 
>  <excitation_energy_2> 
6.422 
 
>  <excitation_energy_3> 
6.452 
 
>  <excitation_energy_4> 
6.792 
 
>  <homo_energy> 
-6.384 
 
>  <homo_lumo_gap> 
7.314 
 
>  <logP> 
2.363 
 
>  <lumo_energy> 
0.931 
 
>  <melting_point> 
-16.77 
 
>  <molecular_refractivity> 
30.48 
 
>  <oscillator_strength_1> 
0.0116 
 
>  <oscillator_strength_2> 
0.0073 
 
>  <oscillator_strength_3> 
0.0005 
 
>  <oscillator_strength_4> 
0.0371 
 
>  <open_babel_can_smiles> 
CCC/C=C/C 
 
>  <mulliken_charges> 
18 
1   -0.485922 
2   -0.44166 
3   -0.092626 
4   -0.245972 
5   -0.085975 
6   -0.294635 
7   0.152766 
8   0.150476 
9   0.152557 
10   0.142863 
11   0.141229 
12   0.141884 
13   0.115416 
14   0.131048 
15   0.138024 
16   0.111638 
17   0.133222 
18   0.135667 
 
>  <lowdin_charges> 
18 
1   -0.439826 
2   -0.445751 
3   -0.168116 
4   -0.27174 
5   -0.169888 
6   -0.271252 
7   0.154978 
8   0.153111 
9   0.156168 
10   0.149685 
11   0.147261 
12   0.146286 
13   0.144648 
14   0.138878 
15   0.143885 
16   0.143277 
17   0.142775 
18   0.14562 
 
$$$$ 
 
