PCCDB-ID:  42802 
public computational chemistry database (PCCDB) project, http://pccdb.org 
 
 28 27  0  0  1  0  0  0  0  0999 V2000 
    1.4407    0.7520    0.7906 C   0  0  0  0  0  0  0  0  0  0  0  0 
    5.5330   -1.1989    0.3879 C   0  0  0  0  0  0  0  0  0  0  0  0 
    5.4553   -0.9091   -4.8256 C   0  0  0  0  0  0  0  0  0  0  0  0 
    2.9249    0.4574    0.5467 C   0  0  0  0  0  0  0  0  0  0  0  0 
    3.1417   -0.7307   -0.4023 C   0  0  0  0  0  0  0  0  0  0  0  0 
    4.7451   -2.1723   -1.7856 C   0  0  0  0  0  0  0  0  0  0  0  0 
    3.9262   -2.1023   -3.0989 C   0  0  0  0  0  0  0  0  0  0  0  0 
    4.6060   -0.9764   -0.8186 C   0  0  2  0  0  0  0  0  0  0  0  0 
    4.2379   -0.8555   -3.9172 C   0  0  0  0  0  0  0  0  0  0  0  0 
    3.5492    0.1461   -3.8348 O   0  0  0  0  0  0  0  0  0  0  0  0 
    1.3083    1.5959    1.4774 H   0  0  0  0  0  0  0  0  0  0  0  0 
    0.9307   -0.1156    1.2280 H   0  0  0  0  0  0  0  0  0  0  0  0 
    0.9275    0.9996   -0.1464 H   0  0  0  0  0  0  0  0  0  0  0  0 
    5.5602   -0.3263    1.0478 H   0  0  0  0  0  0  0  0  0  0  0  0 
    6.5619   -1.3978    0.0636 H   0  0  0  0  0  0  0  0  0  0  0  0 
    5.2020   -2.0589    0.9856 H   0  0  0  0  0  0  0  0  0  0  0  0 
    5.2739   -1.6148   -5.6471 H   0  0  0  0  0  0  0  0  0  0  0  0 
    6.3370   -1.2736   -4.2844 H   0  0  0  0  0  0  0  0  0  0  0  0 
    5.6564    0.0810   -5.2396 H   0  0  0  0  0  0  0  0  0  0  0  0 
    3.4157    0.2693    1.5102 H   0  0  0  0  0  0  0  0  0  0  0  0 
    3.4079    1.3495    0.1232 H   0  0  0  0  0  0  0  0  0  0  0  0 
    2.5478   -0.5501   -1.3063 H   0  0  0  0  0  0  0  0  0  0  0  0 
    2.7395   -1.6446    0.0639 H   0  0  0  0  0  0  0  0  0  0  0  0 
    5.8079   -2.2964   -2.0366 H   0  0  0  0  0  0  0  0  0  0  0  0 
    4.4521   -3.0927   -1.2610 H   0  0  0  0  0  0  0  0  0  0  0  0 
    2.8545   -2.0996   -2.8816 H   0  0  0  0  0  0  0  0  0  0  0  0 
    4.1492   -3.0002   -3.6900 H   0  0  0  0  0  0  0  0  0  0  0  0 
    4.9505   -0.0730   -1.3440 H   0  0  0  0  0  0  0  0  0  0  0  0 
  1 12  1  0  0  0  0 
  1 11  1  0  0  0  0 
  2 16  1  0  0  0  0 
  2 14  1  0  0  0  0 
  3 18  1  0  0  0  0 
  3  9  1  0  0  0  0 
  4  1  1  0  0  0  0 
  4 20  1  0  0  0  0 
  5 23  1  0  0  0  0 
  5  4  1  0  0  0  0 
  6 25  1  0  0  0  0 
  6  8  1  0  0  0  0 
  7 26  1  0  0  0  0 
  7  6  1  0  0  0  0 
  8 28  1  6  0  0  0 
  8  5  1  0  0  0  0 
  8  2  1  0  0  0  0 
  9 10  2  0  0  0  0 
  9  7  1  0  0  0  0 
 13  1  1  0  0  0  0 
 15  2  1  0  0  0  0 
 17  3  1  0  0  0  0 
 19  3  1  0  0  0  0 
 21  4  1  0  0  0  0 
 22  5  1  0  0  0  0 
 24  6  1  0  0  0  0 
 27  7  1  0  0  0  0 
M  END 
>  <HBA> 
1 
 
>  <HBD> 
0 
 
>  <TPSA> 
17.07 
 
>  <cid> 
42802 
 
>  <dipole> 
2.58 
 
>  <excitation_energy_1> 
4.291 
 
>  <excitation_energy_2> 
6.032 
 
>  <excitation_energy_3> 
6.612 
 
>  <excitation_energy_4> 
6.716 
 
>  <homo_energy> 
-6.536 
 
>  <homo_lumo_gap> 
6.193 
 
>  <logP> 
2.792 
 
>  <lumo_energy> 
-0.343 
 
>  <melting_point> 
-7.16 
 
>  <molecular_refractivity> 
45.58 
 
>  <oscillator_strength_1> 
0.0002 
 
>  <oscillator_strength_2> 
0.0231 
 
>  <oscillator_strength_3> 
0.0023 
 
>  <oscillator_strength_4> 
0.0243 
 
>  <open_babel_can_smiles> 
CCC[C@H](CCC(=O)C)C 
 
>  <mulliken_charges> 
28 
1   -0.443752 
2   -0.451041 
3   -0.53319 
4   -0.254266 
5   -0.254565 
6   -0.273103 
7   -0.343619 
8   -0.073371 
9   0.459242 
10   -0.442213 
11   0.13963 
12   0.138157 
13   0.147762 
14   0.150278 
15   0.135873 
16   0.137752 
17   0.170775 
18   0.166898 
19   0.179011 
20   0.131707 
21   0.135081 
22   0.152603 
23   0.115698 
24   0.130737 
25   0.13947 
26   0.167462 
27   0.139892 
28   0.131092 
 
>  <lowdin_charges> 
28 
1   -0.44565 
2   -0.446093 
3   -0.478429 
4   -0.27365 
5   -0.282114 
6   -0.268874 
7   -0.310321 
8   -0.127805 
9   0.169195 
10   -0.240851 
11   0.148661 
12   0.145431 
13   0.149259 
14   0.152708 
15   0.144921 
16   0.145463 
17   0.172197 
18   0.167369 
19   0.171687 
20   0.138395 
21   0.142047 
22   0.151524 
23   0.13312 
24   0.138487 
25   0.14685 
26   0.162387 
27   0.153645 
28   0.140442 
 
$$$$ 
 
