PCCDB-ID:  27315 
public computational chemistry database (PCCDB) project, http://pccdb.org 
 
 18 17  0  0  0  0  0  0  0  0999 V2000 
   -1.0785   -2.4453   -1.5957 C   0  0  0  0  0  0  0  0  0  0  0  0 
   -1.6740   -1.0177   -1.5866 C   0  0  0  0  0  0  0  0  0  0  0  0 
    0.3809   -2.3739   -1.4852 C   0  0  0  0  0  0  0  0  0  0  0  0 
   -3.1934   -0.9276   -1.6387 C   0  0  0  0  0  0  0  0  0  0  0  0 
    1.5357   -2.2997   -1.4018 N   0  0  0  0  0  0  0  0  0  0  0  0 
   -3.8853   -1.8173   -0.5953 N   0  0  0  0  0  0  0  0  0  0  0  0 
   -3.6567    0.5177   -1.3401 N   0  0  0  0  0  0  0  0  0  0  0  0 
   -3.7925   -1.2914   -3.0056 N   0  0  0  0  0  0  0  0  0  0  0  0 
   -4.8792   -2.4245   -0.9450 O   0  0  0  0  0  0  0  0  0  0  0  0 
   -3.3574   -1.8054    0.5064 O   0  0  0  0  0  0  0  0  0  0  0  0 
   -2.9832    1.3884   -1.8642 O   0  0  0  0  0  0  0  0  0  0  0  0 
   -4.6401    0.6470   -0.6363 O   0  0  0  0  0  0  0  0  0  0  0  0 
   -4.6082   -0.5242   -3.4799 O   0  0  0  0  0  0  0  0  0  0  0  0 
   -3.3854   -2.3391   -3.4846 O   0  0  0  0  0  0  0  0  0  0  0  0 
   -1.3429   -2.9749   -2.5137 H   0  0  0  0  0  0  0  0  0  0  0  0 
   -1.4625   -3.0269   -0.7507 H   0  0  0  0  0  0  0  0  0  0  0  0 
   -1.2884   -0.4335   -2.4259 H   0  0  0  0  0  0  0  0  0  0  0  0 
   -1.3666   -0.5062   -0.6706 H   0  0  0  0  0  0  0  0  0  0  0  0 
  1  2  1  0  0  0  0 
  1  3  1  0  0  0  0 
  1 16  1  0  0  0  0 
  2 18  1  0  0  0  0 
  3  5  3  0  0  0  0 
  4  2  1  0  0  0  0 
  4  7  1  0  0  0  0 
  4  6  1  0  0  0  0 
  6 10  2  0  0  0  0 
  7 12  2  0  0  0  0 
  8  4  1  0  0  0  0 
  9  6  2  0  0  0  0 
 11  7  2  0  0  0  0 
 13  8  2  0  0  0  0 
 14  8  2  0  0  0  0 
 15  1  1  0  0  0  0 
 17  2  1  0  0  0  0 
M  END 
>  <HBA> 
1 
 
>  <HBD> 
0 
 
>  <TPSA> 
161.25 
 
>  <cid> 
27315 
 
>  <dipole> 
0.53 
 
>  <excitation_energy_1> 
4.093 
 
>  <excitation_energy_2> 
4.102 
 
>  <excitation_energy_3> 
4.149 
 
>  <excitation_energy_4> 
4.294 
 
>  <homo_energy> 
-9.391 
 
>  <homo_lumo_gap> 
5.649 
 
>  <logP> 
1.344 
 
>  <lumo_energy> 
-3.742 
 
>  <melting_point> 
111.96 
 
>  <molecular_refractivity> 
45.44 
 
>  <oscillator_strength_1> 
0.0002 
 
>  <oscillator_strength_2> 
0.0002 
 
>  <oscillator_strength_3> 
0.0002 
 
>  <oscillator_strength_4> 
0.0006 
 
>  <open_babel_can_smiles> 
N#CCCC(N(=O)=O)(N(=O)=O)N(=O)=O 
 
>  <mulliken_charges> 
18 
1   -0.353119 
2   -0.299236 
3   0.351268 
4   0.310983 
5   -0.449858 
6   0.494636 
7   0.498628 
8   0.500586 
9   -0.314425 
10   -0.340315 
11   -0.335573 
12   -0.316913 
13   -0.317102 
14   -0.344142 
15   0.240751 
16   0.220613 
17   0.227641 
18   0.225577 
 
>  <lowdin_charges> 
18 
1   -0.278915 
2   -0.274947 
3   -0.020489 
4   0.096727 
5   -0.100973 
6   0.289118 
7   0.294546 
8   0.294552 
9   -0.17106 
10   -0.194039 
11   -0.187479 
12   -0.17444 
13   -0.172293 
14   -0.194409 
15   0.202011 
16   0.194018 
17   0.199287 
18   0.198787 
 
$$$$ 
 
