PCCDB-ID:  28226 
public computational chemistry database (PCCDB) project, http://pccdb.org 
 
 27 28  0  0  0  0  0  0  0  0999 V2000 
    0.7615   -0.0700   -0.0812 C   0  0  0  0  0  0  0  0  0  0  0  0 
    7.5189    1.1812   -0.0684 C   0  0  0  0  0  0  0  0  0  0  0  0 
    4.9277    2.6616   -0.0004 C   0  0  0  0  0  0  0  0  0  0  0  0 
    6.4938   -2.4725   -0.1803 C   0  0  0  0  0  0  0  0  0  0  0  0 
    7.2119   -1.2608   -0.1454 C   0  0  0  0  0  0  0  0  0  0  0  0 
    5.1236   -2.4386   -0.1725 C   0  0  0  0  0  0  0  0  0  0  0  0 
    2.9795    1.1611   -0.0452 C   0  0  0  0  0  0  0  0  0  0  0  0 
    3.0089   -1.2208   -0.1246 C   0  0  0  0  0  0  0  0  0  0  0  0 
    2.2705   -0.0645   -0.0844 C   0  0  0  0  0  0  0  0  0  0  0  0 
    6.5945   -0.0211   -0.1020 C   0  0  0  0  0  0  0  0  0  0  0  0 
    4.3589    1.2562   -0.0476 C   0  0  0  0  0  0  0  0  0  0  0  0 
    4.4292   -1.2010   -0.1292 C   0  0  0  0  0  0  0  0  0  0  0  0 
    5.1519    0.0478   -0.0919 C   0  0  0  0  0  0  0  0  0  0  0  0 
    0.3583    0.4759   -0.9438 H   0  0  0  0  0  0  0  0  0  0  0  0 
    0.3617    0.4158    0.8181 H   0  0  0  0  0  0  0  0  0  0  0  0 
    0.3659   -1.0899   -0.1157 H   0  0  0  0  0  0  0  0  0  0  0  0 
    8.5590    0.8427   -0.0923 H   0  0  0  0  0  0  0  0  0  0  0  0 
    7.3975    1.7829    0.8377 H   0  0  0  0  0  0  0  0  0  0  0  0 
    7.3778    1.8480   -0.9246 H   0  0  0  0  0  0  0  0  0  0  0  0 
    4.1095    3.3868    0.0369 H   0  0  0  0  0  0  0  0  0  0  0  0 
    5.5321    2.9026   -0.8804 H   0  0  0  0  0  0  0  0  0  0  0  0 
    5.5525    2.8352    0.8811 H   0  0  0  0  0  0  0  0  0  0  0  0 
    7.0283   -3.4181   -0.2144 H   0  0  0  0  0  0  0  0  0  0  0  0 
    8.2984   -1.2988   -0.1529 H   0  0  0  0  0  0  0  0  0  0  0  0 
    4.5421   -3.3570   -0.1997 H   0  0  0  0  0  0  0  0  0  0  0  0 
    2.4014    2.0827   -0.0113 H   0  0  0  0  0  0  0  0  0  0  0  0 
    2.5106   -2.1878   -0.1552 H   0  0  0  0  0  0  0  0  0  0  0  0 
  1 15  1  0  0  0  0 
  2 18  1  0  0  0  0 
  3 20  1  0  0  0  0 
  3 22  1  0  0  0  0 
  4  6  2  0  0  0  0 
  4  5  1  0  0  0  0 
  5 10  2  0  0  0  0 
  6 12  1  0  0  0  0 
  7 26  1  0  0  0  0 
  8  9  1  0  0  0  0 
  9  1  1  0  0  0  0 
  9  7  2  0  0  0  0 
 10 13  1  0  0  0  0 
 10  2  1  0  0  0  0 
 11  7  1  0  0  0  0 
 11  3  1  0  0  0  0 
 12  8  2  0  0  0  0 
 12 13  1  0  0  0  0 
 13 11  2  0  0  0  0 
 14  1  1  0  0  0  0 
 16  1  1  0  0  0  0 
 17  2  1  0  0  0  0 
 19  2  1  0  0  0  0 
 21  3  1  0  0  0  0 
 23  4  1  0  0  0  0 
 24  5  1  0  0  0  0 
 25  6  1  0  0  0  0 
 27  8  1  0  0  0  0 
M  END 
>  <HBA> 
0 
 
>  <HBD> 
0 
 
>  <TPSA> 
0.0 
 
>  <cid> 
28226 
 
>  <dipole> 
0.58 
 
>  <excitation_energy_1> 
4.22 
 
>  <excitation_energy_2> 
4.333 
 
>  <excitation_energy_3> 
5.171 
 
>  <excitation_energy_4> 
5.336 
 
>  <homo_energy> 
-5.434 
 
>  <homo_lumo_gap> 
4.724 
 
>  <logP> 
3.765 
 
>  <lumo_energy> 
-0.71 
 
>  <melting_point> 
62.17 
 
>  <molecular_refractivity> 
58.85 
 
>  <oscillator_strength_1> 
0.0656 
 
>  <oscillator_strength_2> 
0.0277 
 
>  <oscillator_strength_3> 
0.0002 
 
>  <oscillator_strength_4> 
0.0 
 
>  <open_babel_can_smiles> 
Cc1cc(C)c2c(c1)cccc2C 
 
>  <mulliken_charges> 
27 
1   -0.532974 
2   -0.532252 
3   -0.533262 
4   -0.128492 
5   -0.197246 
6   -0.196803 
7   -0.251731 
8   -0.273746 
9   0.201981 
10   0.119217 
11   0.127445 
12   0.148286 
13   0.02668 
14   0.16055 
15   0.160554 
16   0.155274 
17   0.152846 
18   0.160474 
19   0.160436 
20   0.153243 
21   0.160691 
22   0.160704 
23   0.126172 
24   0.117545 
25   0.125073 
26   0.111269 
27   0.118064 
 
>  <lowdin_charges> 
27 
1   -0.441486 
2   -0.440488 
3   -0.441994 
4   -0.160516 
5   -0.172741 
6   -0.162787 
7   -0.180611 
8   -0.175665 
9   -0.001509 
10   -0.000434 
11   0.001008 
12   0.00627 
13   -0.01795 
14   0.160386 
15   0.160166 
16   0.156188 
17   0.154337 
18   0.158581 
19   0.158887 
20   0.156005 
21   0.159031 
22   0.15903 
23   0.157153 
24   0.150475 
25   0.155814 
26   0.150604 
27   0.152245 
 
$$$$ 
 
