PCCDB-ID:  10333 
public computational chemistry database (PCCDB) project, http://pccdb.org 
 
 17 17  0  0  0  0  0  0  0  0999 V2000 
    0.8820   -0.0798    0.0464 C   0  0  0  0  0  0  0  0  0  0  0  0 
    3.1133   -1.2934   -0.1333 C   0  0  0  0  0  0  0  0  0  0  0  0 
    4.5057   -1.3146   -0.2519 C   0  0  0  0  0  0  0  0  0  0  0  0 
    4.5027    1.1048   -0.2682 C   0  0  0  0  0  0  0  0  0  0  0  0 
    2.3840   -0.1059   -0.0798 C   0  0  0  0  0  0  0  0  0  0  0  0 
    5.1998   -0.1059   -0.3191 C   0  0  0  0  0  0  0  0  0  0  0  0 
    3.1138    1.0964   -0.1504 C   0  0  0  0  0  0  0  0  0  0  0  0 
    6.5625   -0.0336   -0.4355 O   0  0  0  0  0  0  0  0  0  0  0  0 
    2.3888    2.2580   -0.0960 O   0  0  0  0  0  0  0  0  0  0  0  0 
    0.4806   -1.0961    0.1107 H   0  0  0  0  0  0  0  0  0  0  0  0 
    0.4132    0.4180   -0.8115 H   0  0  0  0  0  0  0  0  0  0  0  0 
    0.5619    0.4708    0.9393 H   0  0  0  0  0  0  0  0  0  0  0  0 
    2.5759   -2.2374   -0.0802 H   0  0  0  0  0  0  0  0  0  0  0  0 
    5.0415   -2.2606   -0.2915 H   0  0  0  0  0  0  0  0  0  0  0  0 
    5.0588    2.0376   -0.3216 H   0  0  0  0  0  0  0  0  0  0  0  0 
    6.9192   -0.9350   -0.4562 H   0  0  0  0  0  0  0  0  0  0  0  0 
    2.9970    3.0102   -0.1638 H   0  0  0  0  0  0  0  0  0  0  0  0 
  1 10  1  0  0  0  0 
  1 12  1  0  0  0  0 
  2 13  1  0  0  0  0 
  2  5  1  0  0  0  0 
  3  2  2  0  0  0  0 
  4  7  1  0  0  0  0 
  5  1  1  0  0  0  0 
  6  4  2  0  0  0  0 
  6  3  1  0  0  0  0 
  7  9  1  0  0  0  0 
  7  5  2  0  0  0  0 
  8  6  1  0  0  0  0 
 11  1  1  0  0  0  0 
 14  3  1  0  0  0  0 
 15  4  1  0  0  0  0 
 16  8  1  0  0  0  0 
 17  9  1  0  0  0  0 
M  END 
>  <HBA> 
2 
 
>  <HBD> 
2 
 
>  <TPSA> 
40.46 
 
>  <cid> 
10333 
 
>  <dipole> 
1.02 
 
>  <excitation_energy_1> 
4.916 
 
>  <excitation_energy_2> 
4.937 
 
>  <excitation_energy_3> 
5.087 
 
>  <excitation_energy_4> 
5.585 
 
>  <homo_energy> 
-5.573 
 
>  <homo_lumo_gap> 
5.872 
 
>  <logP> 
1.406 
 
>  <lumo_energy> 
0.299 
 
>  <melting_point> 
89.1 
 
>  <molecular_refractivity> 
35.45 
 
>  <oscillator_strength_1> 
0.0435 
 
>  <oscillator_strength_2> 
0.0017 
 
>  <oscillator_strength_3> 
0.0002 
 
>  <oscillator_strength_4> 
0.0003 
 
>  <open_babel_can_smiles> 
Oc1ccc(c(c1)O)C 
 
>  <mulliken_charges> 
17 
1   -0.513133 
2   -0.198356 
3   -0.198609 
4   -0.236609 
5   0.140223 
6   0.349458 
7   0.301533 
8   -0.648752 
9   -0.64491 
10   0.144469 
11   0.1634 
12   0.163972 
13   0.123466 
14   0.11226 
15   0.125535 
16   0.407278 
17   0.408774 
 
>  <lowdin_charges> 
17 
1   -0.436106 
2   -0.147298 
3   -0.239298 
4   -0.245665 
5   -0.047034 
6   0.11051 
7   0.105227 
8   -0.382583 
9   -0.379721 
10   0.15215 
11   0.161823 
12   0.161876 
13   0.156474 
14   0.152165 
15   0.161939 
16   0.356538 
17   0.359003 
 
$$$$ 
 
