PCCDB-ID:  69533 
public computational chemistry database (PCCDB) project, http://pccdb.org 
 
 27 26  0  0  0  0  0  0  0  0999 V2000 
    1.0429   -0.1734   -0.7071 C   0  0  0  0  0  0  0  0  0  0  0  0 
    1.2919    0.5799   -2.0261 C   0  0  0  0  0  0  0  0  0  0  0  0 
    2.3088   -0.4548    0.1144 C   0  0  0  0  0  0  0  0  0  0  0  0 
    1.8214    2.0234   -1.9263 C   0  0  0  0  0  0  0  0  0  0  0  0 
    2.0261   -1.2705    1.3818 C   0  0  0  0  0  0  0  0  0  0  0  0 
    0.8318    3.0759   -1.4079 C   0  0  0  0  0  0  0  0  0  0  0  0 
    3.2781   -1.5698    2.2083 C   0  0  0  0  0  0  0  0  0  0  0  0 
    0.5464    2.9190    0.0256 N   0  0  0  0  0  0  0  0  0  0  0  0 
    2.9299   -2.3095    3.4289 N   0  0  0  0  0  0  0  0  0  0  0  0 
    0.5659   -1.1346   -0.9502 H   0  0  0  0  0  0  0  0  0  0  0  0 
    0.3345    0.3934   -0.0946 H   0  0  0  0  0  0  0  0  0  0  0  0 
    0.3548    0.5998   -2.6016 H   0  0  0  0  0  0  0  0  0  0  0  0 
    2.0029   -0.0008   -2.6328 H   0  0  0  0  0  0  0  0  0  0  0  0 
    2.7859    0.4932    0.4008 H   0  0  0  0  0  0  0  0  0  0  0  0 
    3.0415   -0.9884   -0.5110 H   0  0  0  0  0  0  0  0  0  0  0  0 
    2.1316    2.3400   -2.9319 H   0  0  0  0  0  0  0  0  0  0  0  0 
    2.7347    2.0572   -1.3143 H   0  0  0  0  0  0  0  0  0  0  0  0 
    1.5466   -2.2215    1.1008 H   0  0  0  0  0  0  0  0  0  0  0  0 
    1.3065   -0.7406    2.0187 H   0  0  0  0  0  0  0  0  0  0  0  0 
   -0.1193    2.9696   -1.9468 H   0  0  0  0  0  0  0  0  0  0  0  0 
    1.2249    4.0773   -1.6649 H   0  0  0  0  0  0  0  0  0  0  0  0 
    3.7427   -0.6239    2.5175 H   0  0  0  0  0  0  0  0  0  0  0  0 
    4.0187   -2.0864    1.5683 H   0  0  0  0  0  0  0  0  0  0  0  0 
    1.3936    3.1073    0.5610 H   0  0  0  0  0  0  0  0  0  0  0  0 
   -0.1324    3.6198    0.3203 H   0  0  0  0  0  0  0  0  0  0  0  0 
    2.5608   -3.2253    3.1727 H   0  0  0  0  0  0  0  0  0  0  0  0 
    3.7724   -2.4926    3.9724 H   0  0  0  0  0  0  0  0  0  0  0  0 
  1 11  1  0  0  0  0 
  1  3  1  0  0  0  0 
  2  4  1  0  0  0  0 
  2  1  1  0  0  0  0 
  3 14  1  0  0  0  0 
  3  5  1  0  0  0  0 
  4  6  1  0  0  0  0 
  4 17  1  0  0  0  0 
  5 19  1  0  0  0  0 
  5  7  1  0  0  0  0 
  6  8  1  0  0  0  0 
  7 22  1  0  0  0  0 
  7  9  1  0  0  0  0 
  8 25  1  0  0  0  0 
  8 24  1  0  0  0  0 
  9 27  1  0  0  0  0 
 10  1  1  0  0  0  0 
 12  2  1  0  0  0  0 
 13  2  1  0  0  0  0 
 15  3  1  0  0  0  0 
 16  4  1  0  0  0  0 
 18  5  1  0  0  0  0 
 20  6  1  0  0  0  0 
 21  6  1  0  0  0  0 
 23  7  1  0  0  0  0 
 26  9  1  0  0  0  0 
M  END 
>  <HBA> 
2 
 
>  <HBD> 
2 
 
>  <TPSA> 
52.04 
 
>  <cid> 
69533 
 
>  <dipole> 
1.53 
 
>  <excitation_energy_1> 
5.513 
 
>  <excitation_energy_2> 
5.542 
 
>  <excitation_energy_3> 
6.097 
 
>  <excitation_energy_4> 
6.194 
 
>  <homo_energy> 
-6.109 
 
>  <homo_lumo_gap> 
8.131 
 
>  <logP> 
2.255 
 
>  <lumo_energy> 
2.022 
 
>  <melting_point> 
81.27 
 
>  <molecular_refractivity> 
41.18 
 
>  <oscillator_strength_1> 
0.007 
 
>  <oscillator_strength_2> 
0.013 
 
>  <oscillator_strength_3> 
0.0018 
 
>  <oscillator_strength_4> 
0.0131 
 
>  <open_babel_can_smiles> 
NCCCCCCCN 
 
>  <mulliken_charges> 
27 
1   -0.250197 
2   -0.253363 
3   -0.255115 
4   -0.255889 
5   -0.247069 
6   -0.133082 
7   -0.132771 
8   -0.708867 
9   -0.715677 
10   0.114337 
11   0.171769 
12   0.123124 
13   0.121318 
14   0.123305 
15   0.118076 
16   0.127807 
17   0.127557 
18   0.118213 
19   0.149556 
20   0.136979 
21   0.110526 
22   0.133148 
23   0.106627 
24   0.292678 
25   0.296167 
26   0.289172 
27   0.29167 
 
>  <lowdin_charges> 
27 
1   -0.284702 
2   -0.274073 
3   -0.276356 
4   -0.281327 
5   -0.278723 
6   -0.203413 
7   -0.206346 
8   -0.556983 
9   -0.559232 
10   0.133938 
11   0.160467 
12   0.138816 
13   0.137749 
14   0.134404 
15   0.133382 
16   0.143507 
17   0.137572 
18   0.133253 
19   0.151292 
20   0.139703 
21   0.11637 
22   0.138085 
23   0.114601 
24   0.251411 
25   0.25557 
26   0.248811 
27   0.252224 
 
$$$$ 
 
