PCCDB-ID:  46514 
public computational chemistry database (PCCDB) project, http://pccdb.org 
 
 35 35  0  0  1  0  0  0  0  0999 V2000 
    1.0694   -0.8047    2.6296 C   0  0  0  0  0  0  0  0  0  0  0  0 
    1.8252    1.2272   -0.1867 C   0  0  0  0  0  0  0  0  0  0  0  0 
    6.9924   -1.3083    2.0191 C   0  0  0  0  0  0  0  0  0  0  0  0 
    5.5684    0.3119    3.2967 C   0  0  0  0  0  0  0  0  0  0  0  0 
    2.5608   -0.7743    2.3914 C   0  0  0  0  0  0  0  0  0  0  0  0 
    2.3378   -0.2205   -0.0423 C   0  0  0  0  0  0  0  0  0  0  0  0 
    5.5447   -0.8808    2.3215 C   0  0  0  0  0  0  0  0  0  0  0  0 
    3.1605   -0.5103    1.2136 C   0  0  0  0  0  0  0  0  0  0  0  0 
    5.2256    0.5866    0.2558 C   0  0  0  0  0  0  0  0  0  0  0  0 
    4.9091   -1.8380    0.0717 C   0  0  0  0  0  0  0  0  0  0  0  0 
    6.3714   -0.6891   -1.3056 C   0  0  0  0  0  0  0  0  0  0  0  0 
    4.6896   -0.6339    1.0048 C   0  0  1  0  0  0  0  0  0  0  0  0 
    5.9837    0.5676   -0.7653 N   0  0  0  0  0  0  0  0  0  0  0  0 
    5.6532   -1.8639   -0.9603 N   0  0  0  0  0  0  0  0  0  0  0  0 
    4.8790    1.7974    0.7492 O   0  0  0  0  0  0  0  0  0  0  0  0 
    4.2763   -2.9718    0.4285 O   0  0  0  0  0  0  0  0  0  0  0  0 
    7.2930   -0.7500   -2.0867 O   0  0  0  0  0  0  0  0  0  0  0  0 
    0.8497   -0.9215    3.6943 H   0  0  0  0  0  0  0  0  0  0  0  0 
    0.5948   -1.6442    2.1031 H   0  0  0  0  0  0  0  0  0  0  0  0 
    0.5693    0.1065    2.2852 H   0  0  0  0  0  0  0  0  0  0  0  0 
    1.1987    1.3101   -1.0808 H   0  0  0  0  0  0  0  0  0  0  0  0 
    2.6483    1.9390   -0.2911 H   0  0  0  0  0  0  0  0  0  0  0  0 
    1.2182    1.5304    0.6730 H   0  0  0  0  0  0  0  0  0  0  0  0 
    7.5234   -1.4639    2.9640 H   0  0  0  0  0  0  0  0  0  0  0  0 
    7.5339   -0.5373    1.4598 H   0  0  0  0  0  0  0  0  0  0  0  0 
    7.0432   -2.2406    1.4511 H   0  0  0  0  0  0  0  0  0  0  0  0 
    6.0397   -0.0034    4.2336 H   0  0  0  0  0  0  0  0  0  0  0  0 
    4.5711    0.6877    3.5477 H   0  0  0  0  0  0  0  0  0  0  0  0 
    6.1596    1.1420    2.8978 H   0  0  0  0  0  0  0  0  0  0  0  0 
    3.1702   -1.0053    3.2602 H   0  0  0  0  0  0  0  0  0  0  0  0 
    2.9266   -0.4711   -0.9325 H   0  0  0  0  0  0  0  0  0  0  0  0 
    1.4759   -0.8982   -0.0525 H   0  0  0  0  0  0  0  0  0  0  0  0 
    5.0611   -1.7258    2.8280 H   0  0  0  0  0  0  0  0  0  0  0  0 
    4.2683    1.6745    1.4957 H   0  0  0  0  0  0  0  0  0  0  0  0 
    3.6509   -2.7628    1.1470 H   0  0  0  0  0  0  0  0  0  0  0  0 
  1 18  1  0  0  0  0 
  2  6  1  0  0  0  0 
  2 23  1  0  0  0  0 
  3  7  1  0  0  0  0 
  3 24  1  0  0  0  0 
  4 28  1  0  0  0  0 
  4 27  1  0  0  0  0 
  5  1  1  0  0  0  0 
  5 30  1  0  0  0  0 
  6  8  1  0  0  0  0 
  7 33  1  0  0  0  0 
  7  4  1  0  0  0  0 
  8  5  2  0  0  0  0 
  9 15  1  0  0  0  0 
  9 12  1  0  0  0  0 
 10 16  1  0  0  0  0 
 10 12  1  0  0  0  0 
 11 14  1  0  0  0  0 
 11 13  2  0  0  0  0 
 12  8  1  1  0  0  0 
 12  7  1  0  0  0  0 
 13  9  2  0  0  0  0 
 14 10  2  0  0  0  0 
 15 34  1  0  0  0  0 
 16 35  1  0  0  0  0 
 17 11  2  0  0  0  0 
 19  1  1  0  0  0  0 
 20  1  1  0  0  0  0 
 21  2  1  0  0  0  0 
 22  2  1  0  0  0  0 
 25  3  1  0  0  0  0 
 26  3  1  0  0  0  0 
 29  4  1  0  0  0  0 
 31  6  1  0  0  0  0 
 32  6  1  0  0  0  0 
M  END 
>  <HBA> 
5 
 
>  <HBD> 
2 
 
>  <TPSA> 
75.27 
 
>  <cid> 
46514 
 
>  <dipole> 
10.23 
 
>  <excitation_energy_1> 
4.001 
 
>  <excitation_energy_2> 
4.226 
 
>  <excitation_energy_3> 
4.955 
 
>  <excitation_energy_4> 
5.337 
 
>  <homo_energy> 
-6.762 
 
>  <homo_lumo_gap> 
5.336 
 
>  <logP> 
2.009 
 
>  <lumo_energy> 
-1.426 
 
>  <melting_point> 
152.79 
 
>  <molecular_refractivity> 
71.37 
 
>  <oscillator_strength_1> 
0.0005 
 
>  <oscillator_strength_2> 
0.0004 
 
>  <oscillator_strength_3> 
0.0351 
 
>  <oscillator_strength_4> 
0.0047 
 
>  <open_babel_can_smiles> 
CC/C(=C\C)/[C@@]1(C(C)C)C(=N[C](=[N]=C1O)=O)O 
 
>  <mulliken_charges> 
35 
1   -0.496485 
2   -0.471313 
3   -0.480986 
4   -0.487803 
5   -0.191831 
6   -0.328831 
7   -0.08006 
8   0.079987 
9   0.534313 
10   0.543688 
11   0.615754 
12   -0.172308 
13   -0.46922 
14   -0.47086 
15   -0.57849 
16   -0.580746 
17   -0.432616 
18   0.16514 
19   0.174183 
20   0.178164 
21   0.162303 
22   0.18066 
23   0.147031 
24   0.154842 
25   0.177643 
26   0.185002 
27   0.163494 
28   0.141558 
29   0.179494 
30   0.153112 
31   0.173779 
32   0.157529 
33   0.136547 
34   0.42303 
35   0.414298 
 
>  <lowdin_charges> 
35 
1   -0.448687 
2   -0.452392 
3   -0.454922 
4   -0.462974 
5   -0.185961 
6   -0.282996 
7   -0.117899 
8   -0.045523 
9   0.142672 
10   0.144539 
11   0.169518 
12   -0.061252 
13   -0.182934 
14   -0.18597 
15   -0.32649 
16   -0.329504 
17   -0.211224 
18   0.163216 
19   0.168006 
20   0.167855 
21   0.161335 
22   0.164061 
23   0.147646 
24   0.159207 
25   0.166082 
26   0.16922 
27   0.162909 
28   0.145425 
29   0.165335 
30   0.162452 
31   0.164787 
32   0.159367 
33   0.144689 
34   0.360864 
35   0.359541 
 
$$$$ 
 
