PCCDB-ID:  73558 
public computational chemistry database (PCCDB) project, http://pccdb.org 
 
 20 20  0  0  1  0  0  0  0  0999 V2000 
   -1.9015    0.2225   -0.0241 C   0  0  0  0  0  0  0  0  0  0  0  0 
   -1.0697    1.3427   -0.0814 C   0  0  0  0  0  0  0  0  0  0  0  0 
   -1.3422   -1.0560    0.0091 C   0  0  0  0  0  0  0  0  0  0  0  0 
    0.3151    1.1818   -0.1102 C   0  0  0  0  0  0  0  0  0  0  0  0 
    0.0438   -1.2164   -0.0153 C   0  0  0  0  0  0  0  0  0  0  0  0 
    0.8876   -0.0967   -0.0764 C   0  0  0  0  0  0  0  0  0  0  0  0 
    2.3881   -0.2487   -0.2106 C   0  0  1  0  0  0  0  0  0  0  0  0 
    3.0056   -1.3914    0.6263 C   0  0  0  0  0  0  0  0  0  0  0  0 
    2.6928   -1.7289    1.8099 N   0  0  0  0  0  0  0  0  0  0  0  0 
    2.7816   -0.3955   -1.5950 O   0  0  0  0  0  0  0  0  0  0  0  0 
    4.0248   -2.0111   -0.0026 O   0  0  0  0  0  0  0  0  0  0  0  0 
   -2.9808    0.3458    0.0006 H   0  0  0  0  0  0  0  0  0  0  0  0 
   -1.4980    2.3409   -0.1020 H   0  0  0  0  0  0  0  0  0  0  0  0 
   -1.9838   -1.9312    0.0627 H   0  0  0  0  0  0  0  0  0  0  0  0 
    0.9611    2.0548   -0.1625 H   0  0  0  0  0  0  0  0  0  0  0  0 
    0.4720   -2.2135    0.0427 H   0  0  0  0  0  0  0  0  0  0  0  0 
    2.8774    0.6793    0.1072 H   0  0  0  0  0  0  0  0  0  0  0  0 
    1.9062   -1.1639    2.1349 H   0  0  0  0  0  0  0  0  0  0  0  0 
    2.0985   -0.9308   -2.0328 H   0  0  0  0  0  0  0  0  0  0  0  0 
    4.0543   -1.6257   -0.9028 H   0  0  0  0  0  0  0  0  0  0  0  0 
  1 12  1  0  0  0  0 
  1  3  2  0  0  0  0 
  2  1  1  0  0  0  0 
  3 14  1  0  0  0  0 
  4  2  2  0  0  0  0 
  4  6  1  0  0  0  0 
  5  3  1  0  0  0  0 
  5 16  1  0  0  0  0 
  6  5  2  0  0  0  0 
  7  6  1  0  0  0  0 
  7 17  1  1  0  0  0 
  7  8  1  0  0  0  0 
  8  9  2  0  0  0  0 
  9 18  1  0  0  0  0 
 10  7  1  0  0  0  0 
 11  8  1  0  0  0  0 
 13  2  1  0  0  0  0 
 15  4  1  0  0  0  0 
 19 10  1  0  0  0  0 
 20 11  1  0  0  0  0 
M  END 
>  <HBA> 
3 
 
>  <HBD> 
2 
 
>  <TPSA> 
63.32 
 
>  <cid> 
73558 
 
>  <dipole> 
4.97 
 
>  <excitation_energy_1> 
5.237 
 
>  <excitation_energy_2> 
5.344 
 
>  <excitation_energy_3> 
5.564 
 
>  <excitation_energy_4> 
5.609 
 
>  <homo_energy> 
-6.844 
 
>  <homo_lumo_gap> 
6.06 
 
>  <logP> 
0.906 
 
>  <lumo_energy> 
-0.784 
 
>  <melting_point> 
100.74 
 
>  <molecular_refractivity> 
40.28 
 
>  <oscillator_strength_1> 
0.004 
 
>  <oscillator_strength_2> 
0.0053 
 
>  <oscillator_strength_3> 
0.0037 
 
>  <oscillator_strength_4> 
0.0059 
 
>  <open_babel_can_smiles> 
O[C@@H](c1ccccc1)C(=N)O 
 
>  <mulliken_charges> 
20 
1   -0.124483 
2   -0.128489 
3   -0.129808 
4   -0.178001 
5   -0.191873 
6   0.122115 
7   -0.034209 
8   0.45644 
9   -0.583077 
10   -0.633855 
11   -0.589307 
12   0.140562 
13   0.140865 
14   0.142858 
15   0.139936 
16   0.157079 
17   0.181132 
18   0.286055 
19   0.403265 
20   0.422795 
 
>  <lowdin_charges> 
20 
1   -0.144038 
2   -0.150553 
3   -0.15191 
4   -0.154455 
5   -0.165984 
6   -0.034897 
7   -0.03476 
8   0.095256 
9   -0.400259 
10   -0.458411 
11   -0.358029 
12   0.161164 
13   0.16279 
14   0.164714 
15   0.163246 
16   0.1686 
17   0.169857 
18   0.258962 
19   0.3524 
20   0.356306 
 
$$$$ 
 
