PCCDB-ID:  14256 
public computational chemistry database (PCCDB) project, http://pccdb.org 
 
 39 38  0  0  0  0  0  0  0  0999 V2000 
    7.5457   -0.8110   -3.6351 C   0  0  0  0  0  0  0  0  0  0  0  0 
    6.2461   -0.0024   -3.5405 C   0  0  0  0  0  0  0  0  0  0  0  0 
    6.2906    1.1555   -2.5299 C   0  0  0  0  0  0  0  0  0  0  0  0 
    6.4395    0.7242   -1.0642 C   0  0  0  0  0  0  0  0  0  0  0  0 
    6.4123    1.9036   -0.0831 C   0  0  0  0  0  0  0  0  0  0  0  0 
    6.5676    1.4788    1.3837 C   0  0  0  0  0  0  0  0  0  0  0  0 
    6.4531    2.6294    2.4001 C   0  0  0  0  0  0  0  0  0  0  0  0 
    7.5261    3.7282    2.2957 C   0  0  0  0  0  0  0  0  0  0  0  0 
    8.9600    3.2410    2.5489 C   0  0  0  0  0  0  0  0  0  0  0  0 
    9.9860    4.3827    2.5364 C   0  0  0  0  0  0  0  0  0  0  0  0 
   11.4400    3.9628    2.8518 C   0  0  0  0  0  0  0  0  0  0  0  0 
   12.0519    3.0413    1.8072 C   0  0  0  0  0  0  0  0  0  0  0  0 
   12.7873    3.3658    0.8242 N   0  0  0  0  0  0  0  0  0  0  0  0 
   11.7306    1.7172    1.9262 O   0  0  0  0  0  0  0  0  0  0  0  0 
    7.4759   -1.5798   -4.4130 H   0  0  0  0  0  0  0  0  0  0  0  0 
    7.7822   -1.3183   -2.6931 H   0  0  0  0  0  0  0  0  0  0  0  0 
    8.3955   -0.1626   -3.8842 H   0  0  0  0  0  0  0  0  0  0  0  0 
    5.4147   -0.6753   -3.2839 H   0  0  0  0  0  0  0  0  0  0  0  0 
    6.0090    0.4074   -4.5316 H   0  0  0  0  0  0  0  0  0  0  0  0 
    5.3700    1.7485   -2.6302 H   0  0  0  0  0  0  0  0  0  0  0  0 
    7.1180    1.8318   -2.7934 H   0  0  0  0  0  0  0  0  0  0  0  0 
    7.3797    0.1714   -0.9295 H   0  0  0  0  0  0  0  0  0  0  0  0 
    5.6323    0.0198   -0.8110 H   0  0  0  0  0  0  0  0  0  0  0  0 
    5.4660    2.4535   -0.2011 H   0  0  0  0  0  0  0  0  0  0  0  0 
    7.2106    2.6086   -0.3553 H   0  0  0  0  0  0  0  0  0  0  0  0 
    7.5276    0.9589    1.5116 H   0  0  0  0  0  0  0  0  0  0  0  0 
    5.7940    0.7343    1.6191 H   0  0  0  0  0  0  0  0  0  0  0  0 
    6.4783    2.2078    3.4155 H   0  0  0  0  0  0  0  0  0  0  0  0 
    5.4643    3.0975    2.2928 H   0  0  0  0  0  0  0  0  0  0  0  0 
    7.2859    4.5172    3.0225 H   0  0  0  0  0  0  0  0  0  0  0  0 
    7.4788    4.2060    1.3077 H   0  0  0  0  0  0  0  0  0  0  0  0 
    9.2339    2.4944    1.7936 H   0  0  0  0  0  0  0  0  0  0  0  0 
    8.9953    2.7305    3.5255 H   0  0  0  0  0  0  0  0  0  0  0  0 
    9.6892    5.1420    3.2727 H   0  0  0  0  0  0  0  0  0  0  0  0 
    9.9702    4.8777    1.5563 H   0  0  0  0  0  0  0  0  0  0  0  0 
   11.4775    3.4798    3.8400 H   0  0  0  0  0  0  0  0  0  0  0  0 
   12.0637    4.8601    2.9235 H   0  0  0  0  0  0  0  0  0  0  0  0 
   12.9550    4.3729    0.8370 H   0  0  0  0  0  0  0  0  0  0  0  0 
   11.1946    1.5889    2.7224 H   0  0  0  0  0  0  0  0  0  0  0  0 
  1  2  1  0  0  0  0 
  1 16  1  0  0  0  0 
  2 18  1  0  0  0  0 
  2  3  1  0  0  0  0 
  3  4  1  0  0  0  0 
  4 22  1  0  0  0  0 
  4 23  1  0  0  0  0 
  4  5  1  0  0  0  0 
  5  6  1  0  0  0  0 
  6 26  1  0  0  0  0 
  6 27  1  0  0  0  0 
  6  7  1  0  0  0  0 
  7 28  1  0  0  0  0 
  8  7  1  0  0  0  0 
  8  9  1  0  0  0  0 
  8 30  1  0  0  0  0 
  9 33  1  0  0  0  0 
 10  9  1  0  0  0  0 
 10 11  1  0  0  0  0 
 10 34  1  0  0  0  0 
 11 37  1  0  0  0  0 
 11 36  1  0  0  0  0 
 12 14  1  0  0  0  0 
 12 11  1  0  0  0  0 
 13 38  1  0  0  0  0 
 13 12  2  0  0  0  0 
 14 39  1  0  0  0  0 
 15  1  1  0  0  0  0 
 17  1  1  0  0  0  0 
 19  2  1  0  0  0  0 
 20  3  1  0  0  0  0 
 21  3  1  0  0  0  0 
 24  5  1  0  0  0  0 
 25  5  1  0  0  0  0 
 29  7  1  0  0  0  0 
 31  8  1  0  0  0  0 
 32  9  1  0  0  0  0 
 35 10  1  0  0  0  0 
M  END 
>  <HBA> 
2 
 
>  <HBD> 
1 
 
>  <TPSA> 
43.09 
 
>  <cid> 
14256 
 
>  <dipole> 
4.19 
 
>  <excitation_energy_1> 
5.993 
 
>  <excitation_energy_2> 
6.265 
 
>  <excitation_energy_3> 
6.45 
 
>  <excitation_energy_4> 
6.771 
 
>  <homo_energy> 
-7.007 
 
>  <homo_lumo_gap> 
7.663 
 
>  <logP> 
4.093 
 
>  <lumo_energy> 
0.656 
 
>  <melting_point> 
45.09 
 
>  <molecular_refractivity> 
62.71 
 
>  <oscillator_strength_1> 
0.0021 
 
>  <oscillator_strength_2> 
0.0074 
 
>  <oscillator_strength_3> 
0.0164 
 
>  <oscillator_strength_4> 
0.0072 
 
>  <open_babel_can_smiles> 
CCCCCCCCCCCC(=N)O 
 
>  <mulliken_charges> 
39 
1   -0.443247 
2   -0.248286 
3   -0.249784 
4   -0.253746 
5   -0.254365 
6   -0.258657 
7   -0.259464 
8   -0.257491 
9   -0.284377 
10   -0.247097 
11   -0.365285 
12   0.47564 
13   -0.57907 
14   -0.571194 
15   0.140835 
16   0.146695 
17   0.14354 
18   0.127777 
19   0.129787 
20   0.124851 
21   0.127911 
22   0.135959 
23   0.124554 
24   0.125347 
25   0.133342 
26   0.130982 
27   0.129249 
28   0.125297 
29   0.130329 
30   0.128729 
31   0.139652 
32   0.158865 
33   0.118106 
34   0.141295 
35   0.148328 
36   0.140512 
37   0.156104 
38   0.280893 
39   0.407482 
 
>  <lowdin_charges> 
39 
1   -0.448514 
2   -0.273121 
3   -0.276454 
4   -0.276847 
5   -0.276923 
6   -0.27934 
7   -0.274793 
8   -0.277157 
9   -0.290612 
10   -0.269961 
11   -0.310982 
12   0.125468 
13   -0.396461 
14   -0.368129 
15   0.149714 
16   0.147638 
17   0.147923 
18   0.138251 
19   0.140825 
20   0.138765 
21   0.138587 
22   0.141265 
23   0.136893 
24   0.136466 
25   0.140043 
26   0.137899 
27   0.142487 
28   0.138241 
29   0.14153 
30   0.141719 
31   0.142412 
32   0.150643 
33   0.131426 
34   0.147357 
35   0.148576 
36   0.14735 
37   0.161319 
38   0.25297 
39   0.353526 
 
$$$$ 
 
