PCCDB-ID:  11398 
public computational chemistry database (PCCDB) project, http://pccdb.org 
 
 23 23  0  0  1  0  0  0  0  0999 V2000 
    0.8831    0.1732    0.0427 C   0  0  0  0  0  0  0  0  0  0  0  0 
    3.1054   -4.0017   -1.9828 C   0  0  0  0  0  0  0  0  0  0  0  0 
    2.2343   -3.9567   -0.8923 C   0  0  0  0  0  0  0  0  0  0  0  0 
    3.7308   -2.8296   -2.4082 C   0  0  0  0  0  0  0  0  0  0  0  0 
    1.9915   -2.7500   -0.2361 C   0  0  0  0  0  0  0  0  0  0  0  0 
    3.4856   -1.6253   -1.7456 C   0  0  0  0  0  0  0  0  0  0  0  0 
    2.9151   -0.2954    1.5118 C   0  0  0  0  0  0  0  0  0  0  0  0 
    2.3635   -0.2451    0.0694 C   0  0  1  0  0  0  0  0  0  0  0  0 
    2.6138   -1.5624   -0.6508 C   0  0  0  0  0  0  0  0  0  0  0  0 
    2.8257    1.0206    2.1566 N   0  0  0  0  0  0  0  0  0  0  0  0 
    0.7514    1.1158    0.5806 H   0  0  0  0  0  0  0  0  0  0  0  0 
    0.2507   -0.5805    0.5271 H   0  0  0  0  0  0  0  0  0  0  0  0 
    0.5288    0.2936   -0.9869 H   0  0  0  0  0  0  0  0  0  0  0  0 
    3.2929   -4.9411   -2.4961 H   0  0  0  0  0  0  0  0  0  0  0  0 
    1.7400   -4.8635   -0.5525 H   0  0  0  0  0  0  0  0  0  0  0  0 
    4.4100   -2.8502   -3.2568 H   0  0  0  0  0  0  0  0  0  0  0  0 
    1.3058   -2.7338    0.6077 H   0  0  0  0  0  0  0  0  0  0  0  0 
    3.9783   -0.7163   -2.0849 H   0  0  0  0  0  0  0  0  0  0  0  0 
    3.9382   -0.7096    1.4813 H   0  0  0  0  0  0  0  0  0  0  0  0 
    2.3114   -0.9952    2.1037 H   0  0  0  0  0  0  0  0  0  0  0  0 
    2.9382    0.5289   -0.4621 H   0  0  0  0  0  0  0  0  0  0  0  0 
    3.5022    1.6541    1.7312 H   0  0  0  0  0  0  0  0  0  0  0  0 
    3.0931    0.9425    3.1363 H   0  0  0  0  0  0  0  0  0  0  0  0 
  1  8  1  0  0  0  0 
  1 12  1  0  0  0  0 
  1 11  1  0  0  0  0 
  2  3  1  0  0  0  0 
  3 15  1  0  0  0  0 
  3  5  2  0  0  0  0 
  4  2  2  0  0  0  0 
  4  6  1  0  0  0  0 
  5 17  1  0  0  0  0 
  6  9  2  0  0  0  0 
  7 20  1  0  0  0  0 
  7 10  1  0  0  0  0 
  8 21  1  6  0  0  0 
  8  7  1  0  0  0  0 
  9  5  1  0  0  0  0 
  9  8  1  0  0  0  0 
 10 23  1  0  0  0  0 
 13  1  1  0  0  0  0 
 14  2  1  0  0  0  0 
 16  4  1  0  0  0  0 
 18  6  1  0  0  0  0 
 19  7  1  0  0  0  0 
 22 10  1  0  0  0  0 
M  END 
>  <HBA> 
1 
 
>  <HBD> 
1 
 
>  <TPSA> 
26.02 
 
>  <cid> 
11398 
 
>  <dipole> 
1.38 
 
>  <excitation_energy_1> 
5.304 
 
>  <excitation_energy_2> 
5.545 
 
>  <excitation_energy_3> 
5.734 
 
>  <excitation_energy_4> 
5.851 
 
>  <homo_energy> 
-6.286 
 
>  <homo_lumo_gap> 
6.406 
 
>  <logP> 
2.449 
 
>  <lumo_energy> 
0.12 
 
>  <melting_point> 
60.07 
 
>  <molecular_refractivity> 
43.73 
 
>  <oscillator_strength_1> 
0.0012 
 
>  <oscillator_strength_2> 
0.0091 
 
>  <oscillator_strength_3> 
0.0065 
 
>  <oscillator_strength_4> 
0.0078 
 
>  <open_babel_can_smiles> 
NC[C@@H](c1ccccc1)C 
 
>  <mulliken_charges> 
23 
1   -0.439071 
2   -0.131715 
3   -0.129771 
4   -0.12573 
5   -0.185163 
6   -0.196234 
7   -0.134113 
8   -0.164597 
9   0.181702 
10   -0.716525 
11   0.170751 
12   0.136331 
13   0.141332 
14   0.126188 
15   0.126635 
16   0.126271 
17   0.125395 
18   0.120495 
19   0.121429 
20   0.137103 
21   0.118384 
22   0.292747 
23   0.298156 
 
>  <lowdin_charges> 
23 
1   -0.444605 
2   -0.162874 
3   -0.15621 
4   -0.155516 
5   -0.165756 
6   -0.171344 
7   -0.206999 
8   -0.126161 
9   0.00102 
10   -0.557197 
11   0.163377 
12   0.146105 
13   0.148267 
14   0.15622 
15   0.156414 
16   0.156127 
17   0.154287 
18   0.152989 
19   0.122806 
20   0.142746 
21   0.138423 
22   0.252453 
23   0.25543 
 
$$$$ 
 
