PCCDB-ID:  15287 
public computational chemistry database (PCCDB) project, http://pccdb.org 
 
 19 18  0  0  1  0  0  0  0  0999 V2000 
    1.5266    2.1014   -0.9238 C   0  0  0  0  0  0  0  0  0  0  0  0 
    5.2760    3.4795   -4.1201 C   0  0  0  0  0  0  0  0  0  0  0  0 
    2.9421    1.5640   -1.0541 C   0  0  0  0  0  0  0  0  0  0  0  0 
    5.0657    2.1054   -1.9830 C   0  0  0  0  0  0  0  0  0  0  0  0 
    5.7740    3.2641   -2.6877 C   0  0  2  0  0  0  0  0  0  0  0  0 
    5.6384    4.4472   -1.9055 O   0  0  0  0  0  0  0  0  0  0  0  0 
    3.7076    2.4867   -1.8141 O   0  0  0  0  0  0  0  0  0  0  0  0 
    0.9073    1.4084   -0.3441 H   0  0  0  0  0  0  0  0  0  0  0  0 
    1.0721    2.2308   -1.9113 H   0  0  0  0  0  0  0  0  0  0  0  0 
    1.5282    3.0718   -0.4165 H   0  0  0  0  0  0  0  0  0  0  0  0 
    5.4730    2.6000   -4.7456 H   0  0  0  0  0  0  0  0  0  0  0  0 
    5.7832    4.3421   -4.5625 H   0  0  0  0  0  0  0  0  0  0  0  0 
    4.1971    3.6671   -4.1270 H   0  0  0  0  0  0  0  0  0  0  0  0 
    2.9398    0.5803   -1.5525 H   0  0  0  0  0  0  0  0  0  0  0  0 
    3.4000    1.4243   -0.0606 H   0  0  0  0  0  0  0  0  0  0  0  0 
    5.5328    1.9291   -1.0010 H   0  0  0  0  0  0  0  0  0  0  0  0 
    5.1387    1.1761   -2.5720 H   0  0  0  0  0  0  0  0  0  0  0  0 
    6.8482    3.0419   -2.7062 H   0  0  0  0  0  0  0  0  0  0  0  0 
    4.6944    4.4921   -1.6754 H   0  0  0  0  0  0  0  0  0  0  0  0 
  1 10  1  0  0  0  0 
  1  8  1  0  0  0  0 
  2  5  1  0  0  0  0 
  3  1  1  0  0  0  0 
  3 15  1  0  0  0  0 
  4  7  1  0  0  0  0 
  4 16  1  0  0  0  0 
  5 18  1  6  0  0  0 
  5  4  1  0  0  0  0 
  5  6  1  0  0  0  0 
  6 19  1  0  0  0  0 
  7  3  1  0  0  0  0 
  9  1  1  0  0  0  0 
 11  2  1  0  0  0  0 
 12  2  1  0  0  0  0 
 13  2  1  0  0  0  0 
 14  3  1  0  0  0  0 
 17  4  1  0  0  0  0 
M  END 
>  <HBA> 
2 
 
>  <HBD> 
1 
 
>  <TPSA> 
29.46 
 
>  <cid> 
15287 
 
>  <dipole> 
2.41 
 
>  <excitation_energy_1> 
6.705 
 
>  <excitation_energy_2> 
6.746 
 
>  <excitation_energy_3> 
7.005 
 
>  <excitation_energy_4> 
7.055 
 
>  <homo_energy> 
-6.969 
 
>  <homo_lumo_gap> 
9.132 
 
>  <logP> 
0.404 
 
>  <lumo_energy> 
2.163 
 
>  <melting_point> 
-16.23 
 
>  <molecular_refractivity> 
28.4 
 
>  <oscillator_strength_1> 
0.0218 
 
>  <oscillator_strength_2> 
0.0291 
 
>  <oscillator_strength_3> 
0.0019 
 
>  <oscillator_strength_4> 
0.013 
 
>  <open_babel_can_smiles> 
CCOC[C@H](O)C 
 
>  <mulliken_charges> 
19 
1   -0.455843 
2   -0.452235 
3   -0.002094 
4   -0.027324 
5   0.125908 
6   -0.632606 
7   -0.490578 
8   0.147127 
9   0.16017 
10   0.157161 
11   0.132229 
12   0.156048 
13   0.154649 
14   0.123427 
15   0.124716 
16   0.130258 
17   0.119603 
18   0.133284 
19   0.3961 
 
>  <lowdin_charges> 
19 
1   -0.449854 
2   -0.461239 
3   -0.122496 
4   -0.146402 
5   -0.002792 
6   -0.466038 
7   -0.283544 
8   0.157768 
9   0.15747 
10   0.155995 
11   0.147867 
12   0.158805 
13   0.153342 
14   0.127388 
15   0.127723 
16   0.134421 
17   0.130417 
18   0.141965 
19   0.339204 
 
$$$$ 
 
