PCCDB-ID:  70518 
public computational chemistry database (PCCDB) project, http://pccdb.org 
 
 25 26  0  0  0  0  0  0  0  0999 V2000 
   -0.7437   -1.0263    0.1741 C   0  0  0  0  0  0  0  0  0  0  0  0 
    0.7923   -0.9740    0.2043 C   0  0  0  0  0  0  0  0  0  0  0  0 
    0.9962    3.1673   -1.2353 C   0  0  0  0  0  0  0  0  0  0  0  0 
   -1.1355    3.3390   -0.1222 C   0  0  0  0  0  0  0  0  0  0  0  0 
    0.9820    4.5437   -1.4598 C   0  0  0  0  0  0  0  0  0  0  0  0 
   -1.1462    4.7107   -0.3532 C   0  0  0  0  0  0  0  0  0  0  0  0 
   -1.1434    0.4489    0.3202 C   0  0  0  0  0  0  0  0  0  0  0  0 
    1.1198    0.3234   -0.5529 C   0  0  0  0  0  0  0  0  0  0  0  0 
   -0.0626    2.5295   -0.5574 C   0  0  0  0  0  0  0  0  0  0  0  0 
   -0.0869    5.3270   -1.0227 C   0  0  0  0  0  0  0  0  0  0  0  0 
   -0.0539    1.1620   -0.3335 N   0  0  0  0  0  0  0  0  0  0  0  0 
   -0.1533    6.6881   -1.2178 O   0  0  0  0  0  0  0  0  0  0  0  0 
   -1.1699   -1.6558    0.9612 H   0  0  0  0  0  0  0  0  0  0  0  0 
   -1.0911   -1.4126   -0.7916 H   0  0  0  0  0  0  0  0  0  0  0  0 
    1.2643   -1.8531   -0.2450 H   0  0  0  0  0  0  0  0  0  0  0  0 
    1.1436   -0.8984    1.2404 H   0  0  0  0  0  0  0  0  0  0  0  0 
    1.8357    2.5873   -1.6032 H   0  0  0  0  0  0  0  0  0  0  0  0 
   -1.9689    2.8942    0.4107 H   0  0  0  0  0  0  0  0  0  0  0  0 
    1.8151    5.0056   -1.9882 H   0  0  0  0  0  0  0  0  0  0  0  0 
   -1.9775    5.3201   -0.0115 H   0  0  0  0  0  0  0  0  0  0  0  0 
   -1.2407    0.7331    1.3830 H   0  0  0  0  0  0  0  0  0  0  0  0 
   -2.1053    0.6671   -0.1624 H   0  0  0  0  0  0  0  0  0  0  0  0 
    1.2829    0.1326   -1.6269 H   0  0  0  0  0  0  0  0  0  0  0  0 
    2.0297    0.8047   -0.1682 H   0  0  0  0  0  0  0  0  0  0  0  0 
    0.6420    6.9690   -1.6955 H   0  0  0  0  0  0  0  0  0  0  0  0 
  1  2  1  0  0  0  0 
  1  7  1  0  0  0  0 
  1 13  1  0  0  0  0 
  2 16  1  0  0  0  0 
  3  9  1  0  0  0  0 
  4 18  1  0  0  0  0 
  5  3  2  0  0  0  0 
  5 10  1  0  0  0  0 
  6  4  1  0  0  0  0 
  6 20  1  0  0  0  0 
  7 21  1  0  0  0  0 
  8 11  1  0  0  0  0 
  8 24  1  0  0  0  0 
  8  2  1  0  0  0  0 
  9 11  1  0  0  0  0 
  9  4  2  0  0  0  0 
 10  6  2  0  0  0  0 
 11  7  1  0  0  0  0 
 12 10  1  0  0  0  0 
 14  1  1  0  0  0  0 
 15  2  1  0  0  0  0 
 17  3  1  0  0  0  0 
 19  5  1  0  0  0  0 
 22  7  1  0  0  0  0 
 23  8  1  0  0  0  0 
 25 12  1  0  0  0  0 
M  END 
>  <HBA> 
2 
 
>  <HBD> 
1 
 
>  <TPSA> 
23.47 
 
>  <cid> 
70518 
 
>  <dipole> 
2.53 
 
>  <excitation_energy_1> 
4.041 
 
>  <excitation_energy_2> 
4.095 
 
>  <excitation_energy_3> 
4.232 
 
>  <excitation_energy_4> 
4.676 
 
>  <homo_energy> 
-4.531 
 
>  <homo_lumo_gap> 
4.819 
 
>  <logP> 
2.057 
 
>  <lumo_energy> 
0.288 
 
>  <melting_point> 
74.89 
 
>  <molecular_refractivity> 
53.11 
 
>  <oscillator_strength_1> 
0.0524 
 
>  <oscillator_strength_2> 
0.0126 
 
>  <oscillator_strength_3> 
0.0107 
 
>  <oscillator_strength_4> 
0.0113 
 
>  <open_babel_can_smiles> 
Oc1ccc(cc1)N1CCCC1 
 
>  <mulliken_charges> 
25 
1   -0.295186 
2   -0.299088 
3   -0.199528 
4   -0.200474 
5   -0.202749 
6   -0.168274 
7   -0.102741 
8   -0.102187 
9   0.371324 
10   0.344768 
11   -0.527571 
12   -0.65672 
13   0.144854 
14   0.149885 
15   0.144993 
16   0.149192 
17   0.123546 
18   0.12439 
19   0.110209 
20   0.132381 
21   0.133458 
22   0.145761 
23   0.135923 
24   0.142489 
25   0.401345 
 
>  <lowdin_charges> 
25 
1   -0.282254 
2   -0.281658 
3   -0.201406 
4   -0.197884 
5   -0.205729 
6   -0.177625 
7   -0.191124 
8   -0.191549 
9   0.04441 
10   0.077594 
11   -0.131467 
12   -0.396522 
13   0.152686 
14   0.148874 
15   0.152188 
16   0.147578 
17   0.158538 
18   0.159224 
19   0.15043 
20   0.164935 
21   0.128466 
22   0.144595 
23   0.130962 
24   0.142826 
25   0.35391 
 
$$$$ 
 
