PCCDB-ID:  65123 
public computational chemistry database (PCCDB) project, http://pccdb.org 
 
 24 26  0  0  0  0  0  0  0  0999 V2000 
   -3.5999    0.0252    0.7077 C   0  0  0  0  0  0  0  0  0  0  0  0 
   -3.2669   -1.3118    0.4679 C   0  0  0  0  0  0  0  0  0  0  0  0 
    3.3496   -1.1073    0.5769 C   0  0  0  0  0  0  0  0  0  0  0  0 
    3.6403    0.2552    0.6707 C   0  0  0  0  0  0  0  0  0  0  0  0 
   -2.7069    1.0278    0.3529 C   0  0  0  0  0  0  0  0  0  0  0  0 
   -2.0380   -1.6351   -0.0999 C   0  0  0  0  0  0  0  0  0  0  0  0 
    2.1365   -1.5230    0.0285 C   0  0  0  0  0  0  0  0  0  0  0  0 
    2.7231    1.1981    0.2086 C   0  0  0  0  0  0  0  0  0  0  0  0 
   -1.4567    0.7257   -0.2162 C   0  0  0  0  0  0  0  0  0  0  0  0 
   -1.1332   -0.6247   -0.4290 C   0  0  0  0  0  0  0  0  0  0  0  0 
    1.2217   -0.5801   -0.4348 C   0  0  0  0  0  0  0  0  0  0  0  0 
    1.5134    0.7816   -0.3468 C   0  0  0  0  0  0  0  0  0  0  0  0 
   -0.6486    1.8905   -0.6806 C   0  0  0  0  0  0  0  0  0  0  0  0 
   -1.1433    2.9665   -0.9150 O   0  0  0  0  0  0  0  0  0  0  0  0 
    0.0478   -1.0287   -1.0190 O   0  0  0  0  0  0  0  0  0  0  0  0 
    0.7040    1.7666   -0.8866 O   0  0  0  0  0  0  0  0  0  0  0  0 
   -4.5562    0.2814    1.1530 H   0  0  0  0  0  0  0  0  0  0  0  0 
   -3.9637   -2.1043    0.7260 H   0  0  0  0  0  0  0  0  0  0  0  0 
    4.0613   -1.8469    0.9312 H   0  0  0  0  0  0  0  0  0  0  0  0 
    4.5814    0.5877    1.0982 H   0  0  0  0  0  0  0  0  0  0  0  0 
   -2.9587    2.0739    0.4893 H   0  0  0  0  0  0  0  0  0  0  0  0 
   -1.7540   -2.6637   -0.2959 H   0  0  0  0  0  0  0  0  0  0  0  0 
    1.8806   -2.5742   -0.0577 H   0  0  0  0  0  0  0  0  0  0  0  0 
    2.9288    2.2627    0.2526 H   0  0  0  0  0  0  0  0  0  0  0  0 
  1 17  1  0  0  0  0 
  2  1  1  0  0  0  0 
  2 18  1  0  0  0  0 
  3  4  1  0  0  0  0 
  3 19  1  0  0  0  0 
  4 20  1  0  0  0  0 
  5 21  1  0  0  0  0 
  5  1  2  0  0  0  0 
  6  2  2  0  0  0  0 
  7  3  2  0  0  0  0 
  8 24  1  0  0  0  0 
  8  4  2  0  0  0  0 
  9  5  1  0  0  0  0 
 10  9  2  0  0  0  0 
 10  6  1  0  0  0  0 
 11 12  2  0  0  0  0 
 11  7  1  0  0  0  0 
 12  8  1  0  0  0  0 
 13  9  1  0  0  0  0 
 14 13  2  0  0  0  0 
 15 11  1  0  0  0  0 
 15 10  1  0  0  0  0 
 16 13  1  0  0  0  0 
 16 12  1  0  0  0  0 
 22  6  1  0  0  0  0 
 23  7  1  0  0  0  0 
M  END 
>  <HBA> 
3 
 
>  <HBD> 
0 
 
>  <TPSA> 
35.53 
 
>  <cid> 
65123 
 
>  <dipole> 
4.14 
 
>  <excitation_energy_1> 
4.152 
 
>  <excitation_energy_2> 
4.633 
 
>  <excitation_energy_3> 
4.831 
 
>  <excitation_energy_4> 
4.939 
 
>  <homo_energy> 
-6.539 
 
>  <homo_lumo_gap> 
5.023 
 
>  <logP> 
3.011 
 
>  <lumo_energy> 
-1.516 
 
>  <melting_point> 
106.66 
 
>  <molecular_refractivity> 
57.92 
 
>  <oscillator_strength_1> 
0.002 
 
>  <oscillator_strength_2> 
0.0403 
 
>  <oscillator_strength_3> 
0.0155 
 
>  <oscillator_strength_4> 
0.0123 
 
>  <open_babel_can_smiles> 
O=C1Oc2ccccc2Oc2c1cccc2 
 
>  <mulliken_charges> 
24 
1   -0.12848 
2   -0.130388 
3   -0.136876 
4   -0.130897 
5   -0.17267 
6   -0.15879 
7   -0.171253 
8   -0.176806 
9   0.036761 
10   0.290653 
11   0.30307 
12   0.327301 
13   0.564255 
14   -0.433214 
15   -0.568392 
16   -0.513224 
17   0.143279 
18   0.146067 
19   0.140098 
20   0.140828 
21   0.172796 
22   0.149507 
23   0.147976 
24   0.158401 
 
>  <lowdin_charges> 
24 
1   -0.163224 
2   -0.130259 
3   -0.155756 
4   -0.153068 
5   -0.115661 
6   -0.173556 
7   -0.164434 
8   -0.159783 
9   -0.082345 
10   0.114615 
11   0.076805 
12   0.073706 
13   0.213803 
14   -0.224642 
15   -0.169397 
16   -0.146563 
17   0.165447 
18   0.167153 
19   0.165438 
20   0.164745 
21   0.180252 
22   0.171759 
23   0.170353 
24   0.174613 
 
$$$$ 
 
