PCCDB-ID:  15652 
public computational chemistry database (PCCDB) project, http://pccdb.org 
 
 28 30  0  0  0  0  0  0  0  0999 V2000 
    3.6860    0.7125   -0.0301 C   0  0  0  0  0  0  0  0  0  0  0  0 
    3.6895   -0.6876   -0.0118 C   0  0  0  0  0  0  0  0  0  0  0  0 
    2.4793    1.4061   -0.0337 C   0  0  0  0  0  0  0  0  0  0  0  0 
    2.4876   -1.3894    0.0009 C   0  0  0  0  0  0  0  0  0  0  0  0 
   -2.4741    1.3884    0.0444 C   0  0  0  0  0  0  0  0  0  0  0  0 
   -3.6921    0.7079    0.0430 C   0  0  0  0  0  0  0  0  0  0  0  0 
    1.2669    0.7073   -0.0198 C   0  0  0  0  0  0  0  0  0  0  0  0 
    1.2687   -0.6988   -0.0031 C   0  0  0  0  0  0  0  0  0  0  0  0 
   -1.2746    0.6867    0.0016 C   0  0  0  0  0  0  0  0  0  0  0  0 
   -3.7304   -0.6821    0.0094 C   0  0  0  0  0  0  0  0  0  0  0  0 
   -1.2767   -0.7385   -0.0107 C   0  0  0  0  0  0  0  0  0  0  0  0 
   -2.5126   -1.4289    0.0105 C   0  0  0  0  0  0  0  0  0  0  0  0 
   -0.0139    1.4687   -0.0126 C   0  0  0  0  0  0  0  0  0  0  0  0 
   -0.0024   -1.4809   -0.0003 C   0  0  0  0  0  0  0  0  0  0  0  0 
   -4.9264   -1.4084    0.0192 N   0  0  0  0  0  0  0  0  0  0  0  0 
   -2.6211   -2.8043   -0.0156 N   0  0  0  0  0  0  0  0  0  0  0  0 
   -0.0142    2.6983   -0.0104 O   0  0  0  0  0  0  0  0  0  0  0  0 
    0.0528   -2.7197    0.0115 O   0  0  0  0  0  0  0  0  0  0  0  0 
    4.6258    1.2580   -0.0410 H   0  0  0  0  0  0  0  0  0  0  0  0 
    4.6320   -1.2283   -0.0081 H   0  0  0  0  0  0  0  0  0  0  0  0 
    2.4453    2.4906   -0.0454 H   0  0  0  0  0  0  0  0  0  0  0  0 
    2.4656   -2.4738    0.0125 H   0  0  0  0  0  0  0  0  0  0  0  0 
   -2.4379    2.4720    0.0564 H   0  0  0  0  0  0  0  0  0  0  0  0 
   -4.6268    1.2647    0.0456 H   0  0  0  0  0  0  0  0  0  0  0  0 
   -5.7532   -0.8362   -0.1110 H   0  0  0  0  0  0  0  0  0  0  0  0 
   -4.9243   -2.1901   -0.6312 H   0  0  0  0  0  0  0  0  0  0  0  0 
   -3.3910   -3.1782    0.5285 H   0  0  0  0  0  0  0  0  0  0  0  0 
   -1.7301   -3.2833    0.0914 H   0  0  0  0  0  0  0  0  0  0  0  0 
  1  2  1  0  0  0  0 
  2 20  1  0  0  0  0 
  2  4  2  0  0  0  0 
  3  1  2  0  0  0  0 
  3  7  1  0  0  0  0 
  4 22  1  0  0  0  0 
  5 23  1  0  0  0  0 
  6  5  2  0  0  0  0 
  6 24  1  0  0  0  0 
  7 13  1  0  0  0  0 
  7  8  2  0  0  0  0 
  8 14  1  0  0  0  0 
  8  4  1  0  0  0  0 
  9  5  1  0  0  0  0 
 10 12  2  0  0  0  0 
 10 15  1  0  0  0  0 
 10  6  1  0  0  0  0 
 11 14  1  0  0  0  0 
 11  9  2  0  0  0  0 
 11 12  1  0  0  0  0 
 13 17  2  0  0  0  0 
 13  9  1  0  0  0  0 
 14 18  2  0  0  0  0 
 16 12  1  0  0  0  0 
 16 28  1  0  0  0  0 
 16 27  1  0  0  0  0 
 19  1  1  0  0  0  0 
 21  3  1  0  0  0  0 
 25 15  1  0  0  0  0 
 26 15  1  0  0  0  0 
M  END 
>  <HBA> 
4 
 
>  <HBD> 
2 
 
>  <TPSA> 
86.18 
 
>  <cid> 
15652 
 
>  <dipole> 
2.98 
 
>  <excitation_energy_1> 
2.675 
 
>  <excitation_energy_2> 
3.017 
 
>  <excitation_energy_3> 
3.331 
 
>  <excitation_energy_4> 
3.399 
 
>  <homo_energy> 
-5.557 
 
>  <homo_lumo_gap> 
3.089 
 
>  <logP> 
2.789 
 
>  <lumo_energy> 
-2.468 
 
>  <melting_point> 
223.2 
 
>  <molecular_refractivity> 
68.56 
 
>  <oscillator_strength_1> 
0.1413 
 
>  <oscillator_strength_2> 
0.0052 
 
>  <oscillator_strength_3> 
0.0012 
 
>  <oscillator_strength_4> 
0.0093 
 
>  <open_babel_can_smiles> 
O=C1c2ccccc2C(=O)c2c1ccc(c2N)N 
 
>  <mulliken_charges> 
28 
1   -0.126361 
2   -0.125918 
3   -0.173931 
4   -0.174879 
5   -0.191385 
6   -0.183036 
7   0.049796 
8   0.054026 
9   0.027827 
10   0.295168 
11   0.032382 
12   0.228354 
13   0.335538 
14   0.351352 
15   -0.808206 
16   -0.832246 
17   -0.494409 
18   -0.535557 
19   0.141489 
20   0.14076 
21   0.165868 
22   0.164214 
23   0.162242 
24   0.129314 
25   0.327977 
26   0.333164 
27   0.330235 
28   0.376219 
 
>  <lowdin_charges> 
28 
1   -0.14153 
2   -0.143238 
3   -0.127485 
4   -0.128729 
5   -0.13623 
6   -0.179997 
7   -0.033022 
8   -0.033674 
9   -0.051035 
10   0.03817 
11   -0.079563 
12   0.06196 
13   0.146152 
14   0.155907 
15   -0.486984 
16   -0.480524 
17   -0.256918 
18   -0.282465 
19   0.16367 
20   0.16337 
21   0.17668 
22   0.175582 
23   0.176769 
24   0.158868 
25   0.279334 
26   0.281557 
27   0.281911 
28   0.301463 
 
$$$$ 
 
