PCCDB-ID:  60022 
public computational chemistry database (PCCDB) project, http://pccdb.org 
 
 32 33  0  0  0  0  0  0  0  0999 V2000 
    0.8338    0.0010    0.4148 C   0  0  0  0  0  0  0  0  0  0  0  0 
    1.6322   -4.7264    1.8644 C   0  0  0  0  0  0  0  0  0  0  0  0 
    2.2919   -5.2992    0.5987 C   0  0  0  0  0  0  0  0  0  0  0  0 
    2.7851   -3.9599    2.5325 C   0  0  0  0  0  0  0  0  0  0  0  0 
    3.2297   -4.1680    0.1160 C   0  0  0  0  0  0  0  0  0  0  0  0 
    4.6337    0.1646    3.6453 C   0  0  0  0  0  0  0  0  0  0  0  0 
    4.2442   -0.9887    2.9574 C   0  0  0  0  0  0  0  0  0  0  0  0 
    3.3321    1.4989    2.1295 C   0  0  0  0  0  0  0  0  0  0  0  0 
    4.1889    1.4266    3.2398 C   0  0  0  0  0  0  0  0  0  0  0  0 
    3.5307   -3.2863    1.3569 C   0  0  0  0  0  0  0  0  0  0  0  0 
    3.4074   -0.9160    1.8411 C   0  0  0  0  0  0  0  0  0  0  0  0 
    2.9443    0.3567    1.4378 C   0  0  0  0  0  0  0  0  0  0  0  0 
    4.5244    2.5875    3.9599 N   0  0  0  0  0  0  0  0  0  0  0  0 
    2.1617    0.5163    0.3171 O   0  0  0  0  0  0  0  0  0  0  0  0 
    3.0071   -1.9800    1.0710 O   0  0  0  0  0  0  0  0  0  0  0  0 
    0.3431    0.2481   -0.5299 H   0  0  0  0  0  0  0  0  0  0  0  0 
    0.2889    0.4785    1.2408 H   0  0  0  0  0  0  0  0  0  0  0  0 
    0.8335   -1.0841    0.5555 H   0  0  0  0  0  0  0  0  0  0  0  0 
    1.1936   -5.4941    2.5108 H   0  0  0  0  0  0  0  0  0  0  0  0 
    0.8314   -4.0274    1.5901 H   0  0  0  0  0  0  0  0  0  0  0  0 
    1.5698   -5.6023   -0.1669 H   0  0  0  0  0  0  0  0  0  0  0  0 
    2.8757   -6.1910    0.8619 H   0  0  0  0  0  0  0  0  0  0  0  0 
    3.4620   -4.6700    3.0278 H   0  0  0  0  0  0  0  0  0  0  0  0 
    2.4613   -3.2337    3.2836 H   0  0  0  0  0  0  0  0  0  0  0  0 
    2.7377   -3.5347   -0.6287 H   0  0  0  0  0  0  0  0  0  0  0  0 
    4.1472   -4.5516   -0.3414 H   0  0  0  0  0  0  0  0  0  0  0  0 
    5.2875    0.0727    4.5095 H   0  0  0  0  0  0  0  0  0  0  0  0 
    4.6132   -1.9469    3.3047 H   0  0  0  0  0  0  0  0  0  0  0  0 
    2.9549    2.4553    1.7775 H   0  0  0  0  0  0  0  0  0  0  0  0 
    4.6074   -3.1944    1.5422 H   0  0  0  0  0  0  0  0  0  0  0  0 
    5.3977    2.5116    4.4689 H   0  0  0  0  0  0  0  0  0  0  0  0 
    4.5198    3.4311    3.3979 H   0  0  0  0  0  0  0  0  0  0  0  0 
  1 18  1  0  0  0  0 
  1 17  1  0  0  0  0 
  2 19  1  0  0  0  0 
  2  4  1  0  0  0  0 
  3 22  1  0  0  0  0 
  3  2  1  0  0  0  0 
  4 23  1  0  0  0  0 
  4 24  1  0  0  0  0 
  5  3  1  0  0  0  0 
  5 10  1  0  0  0  0 
  6 27  1  0  0  0  0 
  7 28  1  0  0  0  0 
  7  6  2  0  0  0  0 
  8  9  2  0  0  0  0 
  9  6  1  0  0  0  0 
  9 13  1  0  0  0  0 
 10 30  1  0  0  0  0 
 10  4  1  0  0  0  0 
 11  7  1  0  0  0  0 
 12 11  2  0  0  0  0 
 12  8  1  0  0  0  0 
 13 31  1  0  0  0  0 
 14  1  1  0  0  0  0 
 14 12  1  0  0  0  0 
 15 10  1  0  0  0  0 
 15 11  1  0  0  0  0 
 16  1  1  0  0  0  0 
 20  2  1  0  0  0  0 
 21  3  1  0  0  0  0 
 25  5  1  0  0  0  0 
 26  5  1  0  0  0  0 
 29  8  1  0  0  0  0 
 32 13  1  0  0  0  0 
M  END 
>  <HBA> 
3 
 
>  <HBD> 
1 
 
>  <TPSA> 
44.48 
 
>  <cid> 
60022 
 
>  <dipole> 
1.48 
 
>  <excitation_energy_1> 
4.379 
 
>  <excitation_energy_2> 
4.418 
 
>  <excitation_energy_3> 
4.669 
 
>  <excitation_energy_4> 
4.906 
 
>  <homo_energy> 
-4.882 
 
>  <homo_lumo_gap> 
5.181 
 
>  <logP> 
3.18 
 
>  <lumo_energy> 
0.299 
 
>  <melting_point> 
84.61 
 
>  <molecular_refractivity> 
60.94 
 
>  <oscillator_strength_1> 
0.0532 
 
>  <oscillator_strength_2> 
0.0015 
 
>  <oscillator_strength_3> 
0.0257 
 
>  <oscillator_strength_4> 
0.0028 
 
>  <open_babel_can_smiles> 
COc1cc(N)ccc1OC1CCCC1 
 
>  <mulliken_charges> 
32 
1   -0.210705 
2   -0.272249 
3   -0.274189 
4   -0.287164 
5   -0.299204 
6   -0.183278 
7   -0.21016 
8   -0.225978 
9   0.302529 
10   0.1405 
11   0.343964 
12   0.301468 
13   -0.789509 
14   -0.522628 
15   -0.552401 
16   0.153804 
17   0.137007 
18   0.161501 
19   0.136788 
20   0.14494 
21   0.139162 
22   0.134344 
23   0.131735 
24   0.156603 
25   0.168956 
26   0.141619 
27   0.112719 
28   0.134801 
29   0.122624 
30   0.132275 
31   0.314223 
32   0.315904 
 
>  <lowdin_charges> 
32 
1   -0.274217 
2   -0.28314 
3   -0.283976 
4   -0.301137 
5   -0.293867 
6   -0.204153 
7   -0.200486 
8   -0.212161 
9   0.046429 
10   0.006466 
11   0.05594 
12   0.079891 
13   -0.495904 
14   -0.226001 
15   -0.207477 
16   0.153589 
17   0.138373 
18   0.145701 
19   0.147749 
20   0.145574 
21   0.148747 
22   0.140897 
23   0.145565 
24   0.158629 
25   0.164466 
26   0.150744 
27   0.151897 
28   0.162269 
29   0.16144 
30   0.134587 
31   0.270886 
32   0.272683 
 
$$$$ 
 
