PCCDB-ID:  12830 
public computational chemistry database (PCCDB) project, http://pccdb.org 
 
 28 29  0  0  0  0  0  0  0  0999 V2000 
   -2.6858   -0.0147    0.0335 C   0  0  0  0  0  0  0  0  0  0  0  0 
   -1.8456   -1.2901    0.1951 C   0  0  0  0  0  0  0  0  0  0  0  0 
   -1.8756    1.2329    0.4143 C   0  0  0  0  0  0  0  0  0  0  0  0 
   -0.5394   -1.2077   -0.6083 C   0  0  0  0  0  0  0  0  0  0  0  0 
   -0.5715    1.3229   -0.3930 C   0  0  0  0  0  0  0  0  0  0  0  0 
    3.2927   -0.1699    1.9699 C   0  0  0  0  0  0  0  0  0  0  0  0 
    0.9505   -0.0655    1.1170 C   0  0  0  0  0  0  0  0  0  0  0  0 
    2.4991    0.0858   -0.4869 C   0  0  0  0  0  0  0  0  0  0  0  0 
    0.3014    0.0494   -0.2775 C   0  0  0  0  0  0  0  0  0  0  0  0 
    1.4470    0.1383   -1.2075 N   0  0  0  0  0  0  0  0  0  0  0  0 
    2.3161   -0.0023    0.8911 N   0  0  0  0  0  0  0  0  0  0  0  0 
    3.1376   -1.3927    2.6318 O   0  0  0  0  0  0  0  0  0  0  0  0 
    0.4517   -0.2070    2.2253 O   0  0  0  0  0  0  0  0  0  0  0  0 
    3.7678    0.1264   -0.9198 O   0  0  0  0  0  0  0  0  0  0  0  0 
   -3.5915   -0.0786    0.6492 H   0  0  0  0  0  0  0  0  0  0  0  0 
   -3.0206    0.0729   -1.0112 H   0  0  0  0  0  0  0  0  0  0  0  0 
   -2.4151   -2.1675   -0.1369 H   0  0  0  0  0  0  0  0  0  0  0  0 
   -1.6145   -1.4411    1.2561 H   0  0  0  0  0  0  0  0  0  0  0  0 
   -1.6429    1.2030    1.4854 H   0  0  0  0  0  0  0  0  0  0  0  0 
   -2.4674    2.1407    0.2406 H   0  0  0  0  0  0  0  0  0  0  0  0 
   -0.7585   -1.1573   -1.6829 H   0  0  0  0  0  0  0  0  0  0  0  0 
    0.0728   -2.1052   -0.4557 H   0  0  0  0  0  0  0  0  0  0  0  0 
    0.0184    2.1979   -0.0923 H   0  0  0  0  0  0  0  0  0  0  0  0 
   -0.7950    1.4482   -1.4604 H   0  0  0  0  0  0  0  0  0  0  0  0 
    3.1737    0.6806    2.6535 H   0  0  0  0  0  0  0  0  0  0  0  0 
    4.2879   -0.1471    1.5261 H   0  0  0  0  0  0  0  0  0  0  0  0 
    2.2695   -1.3510    3.0714 H   0  0  0  0  0  0  0  0  0  0  0  0 
    3.7205    0.1762   -1.8913 H   0  0  0  0  0  0  0  0  0  0  0  0 
  1  2  1  0  0  0  0 
  1  3  1  0  0  0  0 
  1 15  1  0  0  0  0 
  2 18  1  0  0  0  0 
  3 19  1  0  0  0  0 
  4 22  1  0  0  0  0 
  4  9  1  0  0  0  0 
  4  2  1  0  0  0  0 
  5  9  1  0  0  0  0 
  5 23  1  0  0  0  0 
  5  3  1  0  0  0  0 
  6 12  1  0  0  0  0 
  6 25  1  0  0  0  0 
  7 13  2  0  0  0  0 
  8 11  1  0  0  0  0 
  9  7  1  0  0  0  0 
 10  8  2  0  0  0  0 
 10  9  1  0  0  0  0 
 11  7  1  0  0  0  0 
 11  6  1  0  0  0  0 
 12 27  1  0  0  0  0 
 14  8  1  0  0  0  0 
 16  1  1  0  0  0  0 
 17  2  1  0  0  0  0 
 20  3  1  0  0  0  0 
 21  4  1  0  0  0  0 
 24  5  1  0  0  0  0 
 26  6  1  0  0  0  0 
 28 14  1  0  0  0  0 
M  END 
>  <HBA> 
5 
 
>  <HBD> 
2 
 
>  <TPSA> 
69.64 
 
>  <cid> 
12830 
 
>  <dipole> 
1.94 
 
>  <excitation_energy_1> 
5.061 
 
>  <excitation_energy_2> 
5.563 
 
>  <excitation_energy_3> 
5.875 
 
>  <excitation_energy_4> 
6.337 
 
>  <homo_energy> 
-6.67 
 
>  <homo_lumo_gap> 
6.368 
 
>  <logP> 
0.458 
 
>  <lumo_energy> 
-0.302 
 
>  <melting_point> 
129.17 
 
>  <molecular_refractivity> 
56.67 
 
>  <oscillator_strength_1> 
0.0034 
 
>  <oscillator_strength_2> 
0.0291 
 
>  <oscillator_strength_3> 
0.0016 
 
>  <oscillator_strength_4> 
0.0221 
 
>  <open_babel_can_smiles> 
OCN1C(=NC2(C1=O)CCCCC2)O 
 
>  <mulliken_charges> 
28 
1   -0.258874 
2   -0.270267 
3   -0.269687 
4   -0.256681 
5   -0.256927 
6   0.065572 
7   0.60455 
8   0.702228 
9   0.063546 
10   -0.500629 
11   -0.493141 
12   -0.600897 
13   -0.534973 
14   -0.608817 
15   0.133617 
16   0.125974 
17   0.132102 
18   0.161791 
19   0.16074 
20   0.13192 
21   0.150205 
22   0.140287 
23   0.136092 
24   0.150958 
25   0.158489 
26   0.185528 
27   0.416826 
28   0.430468 
 
>  <lowdin_charges> 
28 
1   -0.27552 
2   -0.282902 
3   -0.281955 
4   -0.26765 
5   -0.268202 
6   -0.066699 
7   0.165586 
8   0.155954 
9   0.040277 
10   -0.264954 
11   -0.097787 
12   -0.44502 
13   -0.293144 
14   -0.344039 
15   0.146142 
16   0.134526 
17   0.146317 
18   0.153222 
19   0.152423 
20   0.145846 
21   0.150981 
22   0.14963 
23   0.147848 
24   0.151355 
25   0.147064 
26   0.170454 
27   0.353683 
28   0.376566 
 
$$$$ 
 
