PCCDB-ID:  6947 
public computational chemistry database (PCCDB) project, http://pccdb.org 
 
 15 15  0  0  0  0  0  0  0  0999 V2000 
   -1.3534   -0.0585   -0.2523 C   0  0  0  0  0  0  0  0  0  0  0  0 
   -0.6195   -1.2281   -0.0325 C   0  0  0  0  0  0  0  0  0  0  0  0 
   -0.6874    1.1584   -0.3004 C   0  0  0  0  0  0  0  0  0  0  0  0 
    0.7590   -1.1729    0.1351 C   0  0  0  0  0  0  0  0  0  0  0  0 
    0.6976    1.2224   -0.1201 C   0  0  0  0  0  0  0  0  0  0  0  0 
    1.4502    0.0491    0.0994 C   0  0  0  0  0  0  0  0  0  0  0  0 
    1.3173    2.5520   -0.1668 N   0  0  0  0  0  0  0  0  0  0  0  0 
    2.7937    0.0984    0.2430 O   0  0  0  0  0  0  0  0  0  0  0  0 
    0.6493    3.4664   -0.6580 O   0  0  0  0  0  0  0  0  0  0  0  0 
    2.4476    2.6875    0.2935 O   0  0  0  0  0  0  0  0  0  0  0  0 
   -2.4294   -0.0963   -0.3858 H   0  0  0  0  0  0  0  0  0  0  0  0 
   -1.1212   -2.1908    0.0056 H   0  0  0  0  0  0  0  0  0  0  0  0 
   -1.2143    2.0877   -0.4780 H   0  0  0  0  0  0  0  0  0  0  0  0 
    1.3262   -2.0874    0.2983 H   0  0  0  0  0  0  0  0  0  0  0  0 
    3.1256   -0.8102    0.3307 H   0  0  0  0  0  0  0  0  0  0  0  0 
  1  2  1  0  0  0  0 
  2 12  1  0  0  0  0 
  2  4  2  0  0  0  0 
  3  1  2  0  0  0  0 
  3  5  1  0  0  0  0 
  4 14  1  0  0  0  0 
  5  6  2  0  0  0  0 
  6  4  1  0  0  0  0 
  6  8  1  0  0  0  0 
  7  5  1  0  0  0  0 
  7 10  2  0  0  0  0 
  8 15  1  0  0  0  0 
  9  7  2  0  0  0  0 
 11  1  1  0  0  0  0 
 13  3  1  0  0  0  0 
M  END 
>  <HBA> 
1 
 
>  <HBD> 
1 
 
>  <TPSA> 
66.05 
 
>  <cid> 
6947 
 
>  <dipole> 
5.86 
 
>  <excitation_energy_1> 
3.683 
 
>  <excitation_energy_2> 
3.922 
 
>  <excitation_energy_3> 
4.27 
 
>  <excitation_energy_4> 
4.885 
 
>  <homo_energy> 
-6.83 
 
>  <homo_lumo_gap> 
4.672 
 
>  <logP> 
1.824 
 
>  <lumo_energy> 
-2.158 
 
>  <melting_point> 
83.09 
 
>  <molecular_refractivity> 
37.29 
 
>  <oscillator_strength_1> 
0.0051 
 
>  <oscillator_strength_2> 
0.063 
 
>  <oscillator_strength_3> 
0.002 
 
>  <oscillator_strength_4> 
0.148 
 
>  <open_babel_can_smiles> 
O=N(=O)c1ccccc1O 
 
>  <mulliken_charges> 
15 
1   -0.144368 
2   -0.113069 
3   -0.156731 
4   -0.203143 
5   0.25905 
6   0.337624 
7   0.362087 
8   -0.598151 
9   -0.400936 
10   -0.375804 
11   0.147129 
12   0.148828 
13   0.186882 
14   0.134778 
15   0.415822 
 
>  <lowdin_charges> 
15 
1   -0.169247 
2   -0.122456 
3   -0.126317 
4   -0.208787 
5   -0.027261 
6   0.120963 
7   0.307848 
8   -0.333201 
9   -0.261209 
10   -0.228615 
11   0.166182 
12   0.168006 
13   0.19029 
14   0.162014 
15   0.361789 
 
$$$$ 
 
