PCCDB-ID:  17846 
public computational chemistry database (PCCDB) project, http://pccdb.org 
 
 23 24  0  0  0  0  0  0  0  0999 V2000 
    1.6607    1.4104   -1.0927 C   0  0  0  0  0  0  0  0  0  0  0  0 
    1.8108   -0.8268   -0.0390 C   0  0  0  0  0  0  0  0  0  0  0  0 
    5.0076    2.2243    4.7717 C   0  0  0  0  0  0  0  0  0  0  0  0 
    5.0016    3.4939    4.1705 C   0  0  0  0  0  0  0  0  0  0  0  0 
    4.4556    1.1130    4.1332 C   0  0  0  0  0  0  0  0  0  0  0  0 
    4.4393    3.6930    2.9064 C   0  0  0  0  0  0  0  0  0  0  0  0 
    3.8904    1.2899    2.8669 C   0  0  0  0  0  0  0  0  0  0  0  0 
    3.8928    2.5781    2.2797 C   0  0  0  0  0  0  0  0  0  0  0  0 
    2.9324    1.0576    0.9606 C   0  0  0  0  0  0  0  0  0  0  0  0 
    3.2797    0.3678    2.0269 N   0  0  0  0  0  0  0  0  0  0  0  0 
    3.2615    2.4006    1.0513 N   0  0  0  0  0  0  0  0  0  0  0  0 
    2.3412    0.5266   -0.1627 N   0  0  0  0  0  0  0  0  0  0  0  0 
    1.3728    0.8327   -1.9747 H   0  0  0  0  0  0  0  0  0  0  0  0 
    2.3318    2.2051   -1.4386 H   0  0  0  0  0  0  0  0  0  0  0  0 
    0.7523    1.8729   -0.6721 H   0  0  0  0  0  0  0  0  0  0  0  0 
    1.7377   -1.2709   -1.0366 H   0  0  0  0  0  0  0  0  0  0  0  0 
    0.8165   -0.8451    0.4338 H   0  0  0  0  0  0  0  0  0  0  0  0 
    2.4918   -1.4156    0.5750 H   0  0  0  0  0  0  0  0  0  0  0  0 
    5.4529    2.1066    5.7560 H   0  0  0  0  0  0  0  0  0  0  0  0 
    5.4406    4.3380    4.6950 H   0  0  0  0  0  0  0  0  0  0  0  0 
    4.4607    0.1313    4.5970 H   0  0  0  0  0  0  0  0  0  0  0  0 
    4.4334    4.6752    2.4411 H   0  0  0  0  0  0  0  0  0  0  0  0 
    3.1049    3.1119    0.3558 H   0  0  0  0  0  0  0  0  0  0  0  0 
  1 15  1  0  0  0  0 
  1 12  1  0  0  0  0 
  2 17  1  0  0  0  0 
  2 18  1  0  0  0  0 
  3 19  1  0  0  0  0 
  4 20  1  0  0  0  0 
  4  3  1  0  0  0  0 
  5 21  1  0  0  0  0 
  5  3  2  0  0  0  0 
  6  4  2  0  0  0  0 
  7  5  1  0  0  0  0 
  8  7  2  0  0  0  0 
  8  6  1  0  0  0  0 
  9 11  1  0  0  0  0 
  9 10  2  0  0  0  0 
 10  7  1  0  0  0  0 
 11  8  1  0  0  0  0 
 12  2  1  0  0  0  0 
 12  9  1  0  0  0  0 
 13  1  1  0  0  0  0 
 14  1  1  0  0  0  0 
 16  2  1  0  0  0  0 
 22  6  1  0  0  0  0 
 23 11  1  0  0  0  0 
M  END 
>  <HBA> 
2 
 
>  <HBD> 
1 
 
>  <TPSA> 
31.92 
 
>  <cid> 
17846 
 
>  <dipole> 
4.33 
 
>  <excitation_energy_1> 
4.328 
 
>  <excitation_energy_2> 
4.647 
 
>  <excitation_energy_3> 
4.992 
 
>  <excitation_energy_4> 
5.084 
 
>  <homo_energy> 
-5.086 
 
>  <homo_lumo_gap> 
5.312 
 
>  <logP> 
1.629 
 
>  <lumo_energy> 
0.226 
 
>  <melting_point> 
120.78 
 
>  <molecular_refractivity> 
50.3 
 
>  <oscillator_strength_1> 
0.0208 
 
>  <oscillator_strength_2> 
0.216 
 
>  <oscillator_strength_3> 
0.0105 
 
>  <oscillator_strength_4> 
0.0205 
 
>  <open_babel_can_smiles> 
CN(c1nc2c([nH]1)cccc2)C 
 
>  <mulliken_charges> 
23 
1   -0.321086 
2   -0.310069 
3   -0.141752 
4   -0.153964 
5   -0.195012 
6   -0.181148 
7   0.253897 
8   0.353092 
9   0.764334 
10   -0.606204 
11   -0.778396 
12   -0.473547 
13   0.169682 
14   0.151074 
15   0.155298 
16   0.147653 
17   0.148893 
18   0.206515 
19   0.118556 
20   0.118827 
21   0.129708 
22   0.117721 
23   0.325927 
 
>  <lowdin_charges> 
23 
1   -0.353739 
2   -0.346613 
3   -0.171202 
4   -0.17375 
5   -0.170404 
6   -0.1931 
7   0.019506 
8   0.018292 
9   0.127143 
10   -0.249993 
11   -0.237805 
12   -0.11868 
13   0.165188 
14   0.150696 
15   0.142677 
16   0.149634 
17   0.141561 
18   0.185229 
19   0.153214 
20   0.154923 
21   0.161669 
22   0.153302 
23   0.292254 
 
$$$$ 
 
