PCCDB-ID:  40522 
public computational chemistry database (PCCDB) project, http://pccdb.org 
 
 29 29  0  0  1  0  0  0  0  0999 V2000 
    3.2211   -2.2474    2.4306 C   0  0  0  0  0  0  0  0  0  0  0  0 
    4.3535    0.1926   -3.6581 C   0  0  0  0  0  0  0  0  0  0  0  0 
    6.8771   -1.4228   -0.2044 C   0  0  0  0  0  0  0  0  0  0  0  0 
    6.7304   -1.7861   -1.6870 C   0  0  0  0  0  0  0  0  0  0  0  0 
    6.3795   -0.0243    0.2000 C   0  0  0  0  0  0  0  0  0  0  0  0 
    5.3295   -1.5779   -2.2790 C   0  0  0  0  0  0  0  0  0  0  0  0 
    4.2735    0.4257   -1.2782 C   0  0  0  0  0  0  0  0  0  0  0  0 
    3.9593   -0.9939    2.0176 C   0  0  0  0  0  0  0  0  0  0  0  0 
    4.8584    0.1774    0.1205 C   0  0  1  0  0  0  0  0  0  0  0  0 
    5.0044   -0.1487   -2.4016 N   0  0  0  0  0  0  0  0  0  0  0  0 
    4.3161   -0.1139    2.7709 O   0  0  0  0  0  0  0  0  0  0  0  0 
    4.1677   -0.9829    0.6798 O   0  0  0  0  0  0  0  0  0  0  0  0 
    3.8159   -3.1328    2.1820 H   0  0  0  0  0  0  0  0  0  0  0  0 
    2.2751   -2.3262    1.8854 H   0  0  0  0  0  0  0  0  0  0  0  0 
    3.0321   -2.2200    3.5042 H   0  0  0  0  0  0  0  0  0  0  0  0 
    4.9669   -0.1467   -4.4991 H   0  0  0  0  0  0  0  0  0  0  0  0 
    4.2518    1.2816   -3.7361 H   0  0  0  0  0  0  0  0  0  0  0  0 
    3.3420   -0.2463   -3.7705 H   0  0  0  0  0  0  0  0  0  0  0  0 
    7.9373   -1.4984    0.0701 H   0  0  0  0  0  0  0  0  0  0  0  0 
    6.3524   -2.1691    0.4048 H   0  0  0  0  0  0  0  0  0  0  0  0 
    7.0195   -2.8383   -1.8205 H   0  0  0  0  0  0  0  0  0  0  0  0 
    7.4280   -1.1858   -2.2854 H   0  0  0  0  0  0  0  0  0  0  0  0 
    6.8535    0.7447   -0.4232 H   0  0  0  0  0  0  0  0  0  0  0  0 
    6.6805    0.1660    1.2363 H   0  0  0  0  0  0  0  0  0  0  0  0 
    4.5698   -2.1225   -1.6931 H   0  0  0  0  0  0  0  0  0  0  0  0 
    5.3143   -2.0142   -3.2842 H   0  0  0  0  0  0  0  0  0  0  0  0 
    4.2545    1.5122   -1.4364 H   0  0  0  0  0  0  0  0  0  0  0  0 
    3.2161    0.0953   -1.2489 H   0  0  0  0  0  0  0  0  0  0  0  0 
    4.5870    1.0263    0.7535 H   0  0  0  0  0  0  0  0  0  0  0  0 
  1 15  1  0  0  0  0 
  2 10  1  0  0  0  0 
  3 19  1  0  0  0  0 
  3  5  1  0  0  0  0 
  3 20  1  0  0  0  0 
  4  3  1  0  0  0  0 
  5 24  1  0  0  0  0 
  6 25  1  0  0  0  0 
  6  4  1  0  0  0  0 
  7 28  1  0  0  0  0 
  7  9  1  0  0  0  0 
  8  1  1  0  0  0  0 
  8 11  2  0  0  0  0 
  9  5  1  0  0  0  0 
  9 12  1  0  0  0  0 
  9 29  1  1  0  0  0 
 10  6  1  0  0  0  0 
 10  7  1  0  0  0  0 
 12  8  1  0  0  0  0 
 13  1  1  0  0  0  0 
 14  1  1  0  0  0  0 
 16  2  1  0  0  0  0 
 17  2  1  0  0  0  0 
 18  2  1  0  0  0  0 
 21  4  1  0  0  0  0 
 22  4  1  0  0  0  0 
 23  5  1  0  0  0  0 
 26  6  1  0  0  0  0 
 27  7  1  0  0  0  0 
M  END 
>  <HBA> 
3 
 
>  <HBD> 
0 
 
>  <TPSA> 
29.54 
 
>  <cid> 
40522 
 
>  <dipole> 
2.17 
 
>  <excitation_energy_1> 
5.133 
 
>  <excitation_energy_2> 
5.265 
 
>  <excitation_energy_3> 
5.527 
 
>  <excitation_energy_4> 
5.592 
 
>  <homo_energy> 
-5.625 
 
>  <homo_lumo_gap> 
6.038 
 
>  <logP> 
0.972 
 
>  <lumo_energy> 
0.414 
 
>  <melting_point> 
9.1 
 
>  <molecular_refractivity> 
51.36 
 
>  <oscillator_strength_1> 
0.015 
 
>  <oscillator_strength_2> 
0.0077 
 
>  <oscillator_strength_3> 
0.0137 
 
>  <oscillator_strength_4> 
0.0129 
 
>  <open_babel_can_smiles> 
CN1CCCC[C@@H](C1)OC(=O)C 
 
>  <mulliken_charges> 
29 
1   -0.524819 
2   -0.297395 
3   -0.26219 
4   -0.237837 
5   -0.281578 
6   -0.14255 
7   -0.127415 
8   0.606177 
9   0.099753 
10   -0.381153 
11   -0.468943 
12   -0.468549 
13   0.180725 
14   0.179968 
15   0.181998 
16   0.150192 
17   0.146242 
18   0.119204 
19   0.132693 
20   0.135554 
21   0.122029 
22   0.136045 
23   0.148526 
24   0.155143 
25   0.135858 
26   0.132007 
27   0.140519 
28   0.12425 
29   0.165548 
 
>  <lowdin_charges> 
29 
1   -0.464682 
2   -0.352378 
3   -0.2786 
4   -0.280345 
5   -0.288489 
6   -0.205878 
7   -0.204411 
8   0.203444 
9   -0.005511 
10   -0.193095 
11   -0.268152 
12   -0.204216 
13   0.177105 
14   0.176539 
15   0.173647 
16   0.150606 
17   0.145919 
18   0.119363 
19   0.144542 
20   0.142447 
21   0.139209 
22   0.144982 
23   0.156669 
24   0.156163 
25   0.135125 
26   0.145174 
27   0.145654 
28   0.126055 
29   0.163114 
 
$$$$ 
 
