PCCDB-ID:  15257 
public computational chemistry database (PCCDB) project, http://pccdb.org 
 
 16 16  0  0  0  0  0  0  0  0999 V2000 
    0.9296   -0.0153    0.1282 C   0  0  0  0  0  0  0  0  0  0  0  0 
    5.2901    2.5627   -0.3296 C   0  0  0  0  0  0  0  0  0  0  0  0 
    3.0914    1.3076   -0.0852 C   0  0  0  0  0  0  0  0  0  0  0  0 
    4.4440   -0.9696   -0.0246 C   0  0  0  0  0  0  0  0  0  0  0  0 
    2.4293    0.0834    0.0378 C   0  0  0  0  0  0  0  0  0  0  0  0 
    4.4855    1.2990   -0.1791 C   0  0  0  0  0  0  0  0  0  0  0  0 
    3.1163   -1.0724    0.0706 N   0  0  0  0  0  0  0  0  0  0  0  0 
    5.1719    0.1428   -0.1479 N   0  0  0  0  0  0  0  0  0  0  0  0 
    0.4637    0.9656    0.2600 H   0  0  0  0  0  0  0  0  0  0  0  0 
    0.6440   -0.6647    0.9618 H   0  0  0  0  0  0  0  0  0  0  0  0 
    0.5265   -0.4706   -0.7845 H   0  0  0  0  0  0  0  0  0  0  0  0 
    4.6783    3.4563   -0.1752 H   0  0  0  0  0  0  0  0  0  0  0  0 
    5.7289    2.6128   -1.3336 H   0  0  0  0  0  0  0  0  0  0  0  0 
    6.1212    2.5675    0.3827 H   0  0  0  0  0  0  0  0  0  0  0  0 
    2.5369    2.2413   -0.1050 H   0  0  0  0  0  0  0  0  0  0  0  0 
    5.0004   -1.9054    0.0042 H   0  0  0  0  0  0  0  0  0  0  0  0 
  1  9  1  0  0  0  0 
  1 10  1  0  0  0  0 
  2  6  1  0  0  0  0 
  2 12  1  0  0  0  0 
  2 14  1  0  0  0  0 
  3  5  2  0  0  0  0 
  4 16  1  0  0  0  0 
  4  7  2  0  0  0  0 
  5  7  1  0  0  0  0 
  5  1  1  0  0  0  0 
  6  8  2  0  0  0  0 
  6  3  1  0  0  0  0 
  8  4  1  0  0  0  0 
 11  1  1  0  0  0  0 
 13  2  1  0  0  0  0 
 15  3  1  0  0  0  0 
M  END 
>  <HBA> 
2 
 
>  <HBD> 
0 
 
>  <TPSA> 
25.78 
 
>  <cid> 
15257 
 
>  <dipole> 
2.5 
 
>  <excitation_energy_1> 
4.483 
 
>  <excitation_energy_2> 
4.748 
 
>  <excitation_energy_3> 
5.625 
 
>  <excitation_energy_4> 
5.772 
 
>  <homo_energy> 
-6.691 
 
>  <homo_lumo_gap> 
5.818 
 
>  <logP> 
1.093 
 
>  <lumo_energy> 
-0.873 
 
>  <melting_point> 
43.0 
 
>  <molecular_refractivity> 
31.96 
 
>  <oscillator_strength_1> 
0.0058 
 
>  <oscillator_strength_2> 
0.0 
 
>  <oscillator_strength_3> 
0.0582 
 
>  <oscillator_strength_4> 
0.0 
 
>  <open_babel_can_smiles> 
Cc1ncnc(c1)C 
 
>  <mulliken_charges> 
16 
1   -0.508527 
2   -0.50881 
3   -0.200514 
4   0.163107 
5   0.313905 
6   0.313867 
7   -0.439379 
8   -0.439205 
9   0.153163 
10   0.179772 
11   0.178515 
12   0.153302 
13   0.178512 
14   0.179866 
15   0.133331 
16   0.149097 
 
>  <lowdin_charges> 
16 
1   -0.446102 
2   -0.445234 
3   -0.216368 
4   -0.037512 
5   0.081683 
6   0.081557 
7   -0.175289 
8   -0.175343 
9   0.156265 
10   0.175008 
11   0.174017 
12   0.156958 
13   0.17301 
14   0.174789 
15   0.16372 
16   0.158841 
 
$$$$ 
 
