PCCDB-ID:  41338 
public computational chemistry database (PCCDB) project, http://pccdb.org 
 
 33 35  0  0  0  0  0  0  0  0999 V2000 
   -3.6544   -0.8471   -0.1844 C   0  0  0  0  0  0  0  0  0  0  0  0 
    3.6047   -0.6471    0.1505 C   0  0  0  0  0  0  0  0  0  0  0  0 
   -2.4830   -1.5534   -0.1421 C   0  0  0  0  0  0  0  0  0  0  0  0 
    2.4746   -1.4168    0.0953 C   0  0  0  0  0  0  0  0  0  0  0  0 
   -3.6453    0.5779   -0.1702 C   0  0  0  0  0  0  0  0  0  0  0  0 
    3.5162    0.7752    0.1596 C   0  0  0  0  0  0  0  0  0  0  0  0 
   -0.0032   -1.5187   -0.0241 C   0  0  0  0  0  0  0  0  0  0  0  0 
   -2.4564    2.8085   -0.1059 C   0  0  0  0  0  0  0  0  0  0  0  0 
    2.2047    2.9370    0.1318 C   0  0  0  0  0  0  0  0  0  0  0  0 
   -1.2356   -0.8620   -0.0799 C   0  0  0  0  0  0  0  0  0  0  0  0 
    1.1904   -0.7953    0.0424 C   0  0  0  0  0  0  0  0  0  0  0  0 
   -2.4739    1.2939   -0.1190 C   0  0  0  0  0  0  0  0  0  0  0  0 
    2.3067    1.4257    0.1186 C   0  0  0  0  0  0  0  0  0  0  0  0 
   -1.2221    0.5821   -0.0671 C   0  0  0  0  0  0  0  0  0  0  0  0 
    1.0964    0.6460    0.0536 C   0  0  0  0  0  0  0  0  0  0  0  0 
   -3.7700    3.3814   -0.4267 N   0  0  0  0  0  0  0  0  0  0  0  0 
    3.4833    3.5756    0.4681 N   0  0  0  0  0  0  0  0  0  0  0  0 
   -0.0817    1.2902   -0.0018 N   0  0  0  0  0  0  0  0  0  0  0  0 
   -4.6067   -1.3690   -0.2273 H   0  0  0  0  0  0  0  0  0  0  0  0 
    4.5845   -1.1158    0.1881 H   0  0  0  0  0  0  0  0  0  0  0  0 
   -2.4802   -2.6408   -0.1522 H   0  0  0  0  0  0  0  0  0  0  0  0 
    2.5325   -2.5027    0.0870 H   0  0  0  0  0  0  0  0  0  0  0  0 
   -4.5828    1.1243   -0.1908 H   0  0  0  0  0  0  0  0  0  0  0  0 
    4.4221    1.3723    0.1897 H   0  0  0  0  0  0  0  0  0  0  0  0 
    0.0268   -2.6071   -0.0343 H   0  0  0  0  0  0  0  0  0  0  0  0 
   -1.6408    3.1508   -0.7609 H   0  0  0  0  0  0  0  0  0  0  0  0 
   -2.1807    3.1488    0.9015 H   0  0  0  0  0  0  0  0  0  0  0  0 
    1.3694    3.2209    0.7900 H   0  0  0  0  0  0  0  0  0  0  0  0 
    1.9133    3.2792   -0.8705 H   0  0  0  0  0  0  0  0  0  0  0  0 
   -3.9567    3.2651   -1.4222 H   0  0  0  0  0  0  0  0  0  0  0  0 
   -3.7455    4.3854   -0.2602 H   0  0  0  0  0  0  0  0  0  0  0  0 
    3.6790    3.4412    1.4597 H   0  0  0  0  0  0  0  0  0  0  0  0 
    3.4009    4.5808    0.3305 H   0  0  0  0  0  0  0  0  0  0  0  0 
  1  5  2  0  0  0  0 
  1  3  1  0  0  0  0 
  2  6  1  0  0  0  0 
  2 20  1  0  0  0  0 
  3 10  2  0  0  0  0 
  4  2  2  0  0  0  0 
  5 12  1  0  0  0  0 
  6 24  1  0  0  0  0 
  7 11  2  0  0  0  0 
  8 27  1  0  0  0  0 
  9 17  1  0  0  0  0 
  9 28  1  0  0  0  0 
 10 14  1  0  0  0  0 
 10  7  1  0  0  0  0 
 11 15  1  0  0  0  0 
 11  4  1  0  0  0  0 
 12  8  1  0  0  0  0 
 12 14  2  0  0  0  0 
 13  9  1  0  0  0  0 
 13  6  2  0  0  0  0 
 14 18  1  0  0  0  0 
 15 13  1  0  0  0  0 
 16 31  1  0  0  0  0 
 16  8  1  0  0  0  0 
 17 32  1  0  0  0  0 
 18 15  2  0  0  0  0 
 19  1  1  0  0  0  0 
 21  3  1  0  0  0  0 
 22  4  1  0  0  0  0 
 23  5  1  0  0  0  0 
 25  7  1  0  0  0  0 
 26  8  1  0  0  0  0 
 29  9  1  0  0  0  0 
 30 16  1  0  0  0  0 
 33 17  1  0  0  0  0 
M  END 
>  <HBA> 
3 
 
>  <HBD> 
2 
 
>  <TPSA> 
64.93 
 
>  <cid> 
41338 
 
>  <dipole> 
0.48 
 
>  <excitation_energy_1> 
3.201 
 
>  <excitation_energy_2> 
3.533 
 
>  <excitation_energy_3> 
3.889 
 
>  <excitation_energy_4> 
3.984 
 
>  <homo_energy> 
-5.461 
 
>  <homo_lumo_gap> 
3.644 
 
>  <logP> 
3.706 
 
>  <lumo_energy> 
-1.818 
 
>  <melting_point> 
226.67 
 
>  <molecular_refractivity> 
74.6 
 
>  <oscillator_strength_1> 
0.0645 
 
>  <oscillator_strength_2> 
0.001 
 
>  <oscillator_strength_3> 
0.0383 
 
>  <oscillator_strength_4> 
0.0001 
 
>  <open_babel_can_smiles> 
NCc1cccc2c1nc1c(CN)cccc1c2 
 
>  <mulliken_charges> 
33 
1   -0.134072 
2   -0.134069 
3   -0.191315 
4   -0.191098 
5   -0.201273 
6   -0.201606 
7   -0.242289 
8   -0.199001 
9   -0.198104 
10   0.171763 
11   0.171782 
12   0.12491 
13   0.124431 
14   0.204698 
15   0.20489 
16   -0.725235 
17   -0.725442 
18   -0.639482 
19   0.130718 
20   0.130745 
21   0.128463 
22   0.128421 
23   0.156322 
24   0.156306 
25   0.136707 
26   0.148001 
27   0.160042 
28   0.147845 
29   0.160073 
30   0.297148 
31   0.301346 
32   0.297046 
33   0.301328 
 
>  <lowdin_charges> 
33 
1   -0.155841 
2   -0.15548 
3   -0.159583 
4   -0.159551 
5   -0.163158 
6   -0.163638 
7   -0.124502 
8   -0.204564 
9   -0.204377 
10   -0.018505 
11   -0.018475 
12   -0.014102 
13   -0.014094 
14   0.039651 
15   0.039627 
16   -0.550409 
17   -0.550572 
18   -0.168803 
19   0.158905 
20   0.158587 
21   0.155157 
22   0.15518 
23   0.172681 
24   0.17291 
25   0.158072 
26   0.142786 
27   0.15679 
28   0.142493 
29   0.156871 
30   0.251924 
31   0.256015 
32   0.251941 
33   0.256061 
 
$$$$ 
 
