PCCDB-ID:  62148 
public computational chemistry database (PCCDB) project, http://pccdb.org 
 
 29 28  0  0  1  0  0  0  0  0999 V2000 
    3.8211    1.4582    2.6284 C   0  0  0  0  0  0  0  0  0  0  0  0 
    8.7109    3.5691   -2.0930 C   0  0  0  0  0  0  0  0  0  0  0  0 
    4.1050    0.6425    1.3633 C   0  0  0  0  0  0  0  0  0  0  0  0 
    5.2010    1.2550    0.4805 C   0  0  0  0  0  0  0  0  0  0  0  0 
    5.4867    0.4332   -0.7834 C   0  0  0  0  0  0  0  0  0  0  0  0 
    6.4886    1.0670   -1.7634 C   0  0  0  0  0  0  0  0  0  0  0  0 
    8.6272   -0.1053   -0.9367 C   0  0  0  0  0  0  0  0  0  0  0  0 
    8.7348    2.0592   -2.2238 C   0  0  0  0  0  0  0  0  0  0  0  0 
    7.9301    1.2443   -1.2138 C   0  0  1  0  0  0  0  0  0  0  0  0 
    8.6354   -0.9640   -2.0599 O   0  0  0  0  0  0  0  0  0  0  0  0 
    9.3773    1.5162   -3.1131 O   0  0  0  0  0  0  0  0  0  0  0  0 
    3.0392    0.9913    3.2380 H   0  0  0  0  0  0  0  0  0  0  0  0 
    3.4875    2.4733    2.3798 H   0  0  0  0  0  0  0  0  0  0  0  0 
    4.7191    1.5492    3.2520 H   0  0  0  0  0  0  0  0  0  0  0  0 
    7.6954    3.9389   -1.9122 H   0  0  0  0  0  0  0  0  0  0  0  0 
    9.1286    4.0323   -2.9891 H   0  0  0  0  0  0  0  0  0  0  0  0 
    9.3153    3.8628   -1.2242 H   0  0  0  0  0  0  0  0  0  0  0  0 
    3.1817    0.5438    0.7751 H   0  0  0  0  0  0  0  0  0  0  0  0 
    4.3960   -0.3797    1.6437 H   0  0  0  0  0  0  0  0  0  0  0  0 
    6.1170    1.3616    1.0797 H   0  0  0  0  0  0  0  0  0  0  0  0 
    4.9058    2.2759    0.1932 H   0  0  0  0  0  0  0  0  0  0  0  0 
    4.5437    0.2837   -1.3278 H   0  0  0  0  0  0  0  0  0  0  0  0 
    5.8287   -0.5716   -0.5029 H   0  0  0  0  0  0  0  0  0  0  0  0 
    6.0990    2.0437   -2.0841 H   0  0  0  0  0  0  0  0  0  0  0  0 
    6.5556    0.4411   -2.6593 H   0  0  0  0  0  0  0  0  0  0  0  0 
    8.1004   -0.6371   -0.1376 H   0  0  0  0  0  0  0  0  0  0  0  0 
    9.6499    0.0911   -0.5728 H   0  0  0  0  0  0  0  0  0  0  0  0 
    7.8870    1.8141   -0.2750 H   0  0  0  0  0  0  0  0  0  0  0  0 
    9.0749   -0.4493   -2.7625 H   0  0  0  0  0  0  0  0  0  0  0  0 
  1 12  1  0  0  0  0 
  1 14  1  0  0  0  0 
  2 15  1  0  0  0  0 
  2 17  1  0  0  0  0 
  3 19  1  0  0  0  0 
  3  1  1  0  0  0  0 
  4 20  1  0  0  0  0 
  4  3  1  0  0  0  0 
  5 23  1  0  0  0  0 
  5  4  1  0  0  0  0 
  6  9  1  0  0  0  0 
  6  5  1  0  0  0  0 
  7 27  1  0  0  0  0 
  7 26  1  0  0  0  0 
  8  2  1  0  0  0  0 
  8  9  1  0  0  0  0 
  9  7  1  0  0  0  0 
  9 28  1  1  0  0  0 
 10  7  1  0  0  0  0 
 11  8  2  0  0  0  0 
 13  1  1  0  0  0  0 
 16  2  1  0  0  0  0 
 18  3  1  0  0  0  0 
 21  4  1  0  0  0  0 
 22  5  1  0  0  0  0 
 24  6  1  0  0  0  0 
 25  6  1  0  0  0  0 
 29 10  1  0  0  0  0 
M  END 
>  <HBA> 
2 
 
>  <HBD> 
1 
 
>  <TPSA> 
37.3 
 
>  <cid> 
62148 
 
>  <dipole> 
3.62 
 
>  <excitation_energy_1> 
4.328 
 
>  <excitation_energy_2> 
5.303 
 
>  <excitation_energy_3> 
6.195 
 
>  <excitation_energy_4> 
6.522 
 
>  <homo_energy> 
-6.795 
 
>  <homo_lumo_gap> 
6.09 
 
>  <logP> 
1.764 
 
>  <lumo_energy> 
-0.705 
 
>  <melting_point> 
11.45 
 
>  <molecular_refractivity> 
46.74 
 
>  <oscillator_strength_1> 
0.0006 
 
>  <oscillator_strength_2> 
0.0014 
 
>  <oscillator_strength_3> 
0.0199 
 
>  <oscillator_strength_4> 
0.009 
 
>  <open_babel_can_smiles> 
CCCCC[C@H](C(=O)C)CO 
 
>  <mulliken_charges> 
29 
1   -0.442205 
2   -0.532586 
3   -0.247438 
4   -0.251211 
5   -0.265342 
6   -0.265377 
7   -0.02871 
8   0.460748 
9   -0.197402 
10   -0.632714 
11   -0.462469 
12   0.144451 
13   0.141099 
14   0.140812 
15   0.171808 
16   0.183194 
17   0.178432 
18   0.132788 
19   0.133993 
20   0.128611 
21   0.124134 
22   0.135946 
23   0.149153 
24   0.127741 
25   0.164459 
26   0.142531 
27   0.120686 
28   0.132549 
29   0.41232 
 
>  <lowdin_charges> 
29 
1   -0.44502 
2   -0.473202 
3   -0.270828 
4   -0.277495 
5   -0.27529 
6   -0.272547 
7   -0.131964 
8   0.178575 
9   -0.182934 
10   -0.476928 
11   -0.249166 
12   0.151833 
13   0.145303 
14   0.146224 
15   0.168949 
16   0.175071 
17   0.176989 
18   0.140228 
19   0.139833 
20   0.135953 
21   0.134782 
22   0.146562 
23   0.147228 
24   0.138565 
25   0.160505 
26   0.146914 
27   0.127173 
28   0.149344 
29   0.345344 
 
$$$$ 
 
