PCCDB-ID:  65092 
public computational chemistry database (PCCDB) project, http://pccdb.org 
 
 11 11  0  0  0  0  0  0  0  0999 V2000 
   -0.7078   -0.9230   -0.3021 C   0  0  0  0  0  0  0  0  0  0  0  0 
    0.7440   -1.1736    0.1272 C   0  0  0  0  0  0  0  0  0  0  0  0 
   -0.1055    1.2905   -0.2440 C   0  0  0  0  0  0  0  0  0  0  0  0 
   -1.0722    0.3651    0.1731 O   0  0  0  0  0  0  0  0  0  0  0  0 
    1.5698    0.4604   -0.0824 S   0  0  0  0  0  0  0  0  0  0  0  0 
   -1.4053   -1.6369    0.1444 H   0  0  0  0  0  0  0  0  0  0  0  0 
   -0.7949   -0.9716   -1.3988 H   0  0  0  0  0  0  0  0  0  0  0  0 
    1.2324   -1.9224   -0.5015 H   0  0  0  0  0  0  0  0  0  0  0  0 
    0.8010   -1.4846    1.1735 H   0  0  0  0  0  0  0  0  0  0  0  0 
   -0.1633    2.1663    0.4048 H   0  0  0  0  0  0  0  0  0  0  0  0 
   -0.2472    1.5833   -1.2929 H   0  0  0  0  0  0  0  0  0  0  0  0 
  1  2  1  0  0  0  0 
  1  6  1  0  0  0  0 
  1  4  1  0  0  0  0 
  2  9  1  0  0  0  0 
  3  5  1  0  0  0  0 
  3  4  1  0  0  0  0 
  3 10  1  0  0  0  0 
  5  2  1  0  0  0  0 
  7  1  1  0  0  0  0 
  8  2  1  0  0  0  0 
 11  3  1  0  0  0  0 
M  END 
>  <HBA> 
2 
 
>  <HBD> 
0 
 
>  <TPSA> 
34.53 
 
>  <cid> 
65092 
 
>  <dipole> 
1.51 
 
>  <excitation_energy_1> 
4.845 
 
>  <excitation_energy_2> 
5.476 
 
>  <excitation_energy_3> 
5.995 
 
>  <excitation_energy_4> 
6.289 
 
>  <homo_energy> 
-6.057 
 
>  <homo_lumo_gap> 
6.607 
 
>  <logP> 
0.707 
 
>  <lumo_energy> 
0.55 
 
>  <melting_point> 
-1.97 
 
>  <molecular_refractivity> 
23.1 
 
>  <oscillator_strength_1> 
0.0001 
 
>  <oscillator_strength_2> 
0.0039 
 
>  <oscillator_strength_3> 
0.022 
 
>  <oscillator_strength_4> 
0.0165 
 
>  <open_babel_can_smiles> 
C1OCCS1 
 
>  <mulliken_charges> 
11 
1   -0.035913 
2   -0.427069 
3   -0.167487 
4   -0.436831 
5   0.049004 
6   0.163445 
7   0.143753 
8   0.179153 
9   0.186202 
10   0.183295 
11   0.162448 
 
>  <lowdin_charges> 
11 
1   -0.132628 
2   -0.383999 
3   -0.222366 
4   -0.248942 
5   0.04761 
6   0.160921 
7   0.13551 
8   0.171054 
9   0.162799 
10   0.167403 
11   0.142638 
 
$$$$ 
 
