PCCDB-ID:  40593 
public computational chemistry database (PCCDB) project, http://pccdb.org 
 
 37 37  0  0  1  0  0  0  0  0999 V2000 
    6.6337    0.3042   -1.7926 C   0  0  0  0  0  0  0  0  0  0  0  0 
    3.3257   -0.1133    6.5849 C   0  0  0  0  0  0  0  0  0  0  0  0 
    3.3235   -0.6647    1.1632 C   0  0  0  0  0  0  0  0  0  0  0  0 
    5.4557    0.4496   -0.8229 C   0  0  0  0  0  0  0  0  0  0  0  0 
    4.4730   -0.3238    5.5914 C   0  0  0  0  0  0  0  0  0  0  0  0 
    5.7453   -0.1960    0.5415 C   0  0  0  0  0  0  0  0  0  0  0  0 
    4.0200   -0.1376    4.1349 C   0  0  0  0  0  0  0  0  0  0  0  0 
    4.6370    0.0107    1.5982 C   0  0  2  0  0  0  0  0  0  0  0  0 
    6.3450    0.4773    3.4019 C   0  0  0  0  0  0  0  0  0  0  0  0 
    5.5951   -1.8390    3.1205 C   0  0  0  0  0  0  0  0  0  0  0  0 
    7.8393   -1.2948    3.3656 C   0  0  0  0  0  0  0  0  0  0  0  0 
    5.1276   -0.3850    3.0582 C   0  0  1  0  0  0  0  0  0  0  0  0 
    7.5440    0.0810    3.5538 N   0  0  0  0  0  0  0  0  0  0  0  0 
    6.7930   -2.2458    3.2577 N   0  0  0  0  0  0  0  0  0  0  0  0 
    6.1248    1.8055    3.5471 O   0  0  0  0  0  0  0  0  0  0  0  0 
    4.6432   -2.7973    3.0259 O   0  0  0  0  0  0  0  0  0  0  0  0 
    8.9919   -1.6594    3.3135 O   0  0  0  0  0  0  0  0  0  0  0  0 
    6.4110    0.7728   -2.7575 H   0  0  0  0  0  0  0  0  0  0  0  0 
    6.8652   -0.7512   -1.9790 H   0  0  0  0  0  0  0  0  0  0  0  0 
    7.5384    0.7756   -1.3913 H   0  0  0  0  0  0  0  0  0  0  0  0 
    3.6725   -0.2502    7.6142 H   0  0  0  0  0  0  0  0  0  0  0  0 
    2.5097   -0.8255    6.4116 H   0  0  0  0  0  0  0  0  0  0  0  0 
    2.9084    0.8981    6.5066 H   0  0  0  0  0  0  0  0  0  0  0  0 
    2.9622   -0.2068    0.2382 H   0  0  0  0  0  0  0  0  0  0  0  0 
    2.5195   -0.5510    1.8983 H   0  0  0  0  0  0  0  0  0  0  0  0 
    3.4676   -1.7304    0.9506 H   0  0  0  0  0  0  0  0  0  0  0  0 
    4.5618    0.0029   -1.2763 H   0  0  0  0  0  0  0  0  0  0  0  0 
    5.2302    1.5163   -0.6793 H   0  0  0  0  0  0  0  0  0  0  0  0 
    4.8878   -1.3318    5.7169 H   0  0  0  0  0  0  0  0  0  0  0  0 
    5.2867    0.3755    5.8175 H   0  0  0  0  0  0  0  0  0  0  0  0 
    6.6892    0.2178    0.9159 H   0  0  0  0  0  0  0  0  0  0  0  0 
    5.9177   -1.2727    0.4042 H   0  0  0  0  0  0  0  0  0  0  0  0 
    3.6076    0.8740    4.0012 H   0  0  0  0  0  0  0  0  0  0  0  0 
    3.1655   -0.7995    3.9502 H   0  0  0  0  0  0  0  0  0  0  0  0 
    4.4317    1.0909    1.6525 H   0  0  0  0  0  0  0  0  0  0  0  0 
    5.1836    2.0055    3.4265 H   0  0  0  0  0  0  0  0  0  0  0  0 
    3.7697   -2.3921    2.9185 H   0  0  0  0  0  0  0  0  0  0  0  0 
  1 20  1  0  0  0  0 
  1  4  1  0  0  0  0 
  2 21  1  0  0  0  0 
  3  8  1  0  0  0  0 
  3 25  1  0  0  0  0 
  4 28  1  0  0  0  0 
  4  6  1  0  0  0  0 
  5 29  1  0  0  0  0 
  5 30  1  0  0  0  0 
  5  2  1  0  0  0  0 
  6 31  1  0  0  0  0 
  6  8  1  0  0  0  0 
  7  5  1  0  0  0  0 
  8 35  1  1  0  0  0 
  8 12  1  0  0  0  0 
  9 15  1  0  0  0  0 
  9 13  2  0  0  0  0 
 10 14  2  0  0  0  0 
 11 13  2  0  0  0  0 
 12 10  1  0  0  0  0 
 12  9  1  0  0  0  0 
 12  7  1  1  0  0  0 
 14 11  1  0  0  0  0 
 16 10  1  0  0  0  0 
 17 11  2  0  0  0  0 
 18  1  1  0  0  0  0 
 19  1  1  0  0  0  0 
 22  2  1  0  0  0  0 
 23  2  1  0  0  0  0 
 24  3  1  0  0  0  0 
 26  3  1  0  0  0  0 
 27  4  1  0  0  0  0 
 32  6  1  0  0  0  0 
 33  7  1  0  0  0  0 
 34  7  1  0  0  0  0 
 36 15  1  0  0  0  0 
 37 16  1  0  0  0  0 
M  END 
>  <HBA> 
5 
 
>  <HBD> 
2 
 
>  <TPSA> 
75.27 
 
>  <cid> 
40593 
 
>  <dipole> 
9.87 
 
>  <excitation_energy_1> 
4.002 
 
>  <excitation_energy_2> 
4.194 
 
>  <excitation_energy_3> 
5.247 
 
>  <excitation_energy_4> 
5.535 
 
>  <homo_energy> 
-6.833 
 
>  <homo_lumo_gap> 
5.385 
 
>  <logP> 
2.233 
 
>  <lumo_energy> 
-1.448 
 
>  <melting_point> 
139.58 
 
>  <molecular_refractivity> 
71.85 
 
>  <oscillator_strength_1> 
0.0002 
 
>  <oscillator_strength_2> 
0.0001 
 
>  <oscillator_strength_3> 
0.0003 
 
>  <oscillator_strength_4> 
0.0204 
 
>  <open_babel_can_smiles> 
CCC[C@H]([C@@]1(CCC)C(=N[C](=[N]=C1O)=O)O)C 
 
>  <mulliken_charges> 
37 
1   -0.446072 
2   -0.447704 
3   -0.507065 
4   -0.260106 
5   -0.274464 
6   -0.28395 
7   -0.302368 
8   -0.073524 
9   0.542398 
10   0.535829 
11   0.616638 
12   -0.134977 
13   -0.470035 
14   -0.466609 
15   -0.581828 
16   -0.581687 
17   -0.43259 
18   0.14688 
19   0.151875 
20   0.156243 
21   0.163195 
22   0.146723 
23   0.145377 
24   0.176767 
25   0.149785 
26   0.165609 
27   0.137316 
28   0.133347 
29   0.169504 
30   0.170595 
31   0.168661 
32   0.158649 
33   0.131614 
34   0.138403 
35   0.118112 
36   0.417371 
37   0.42209 
 
>  <lowdin_charges> 
37 
1   -0.44199 
2   -0.441566 
3   -0.464707 
4   -0.271843 
5   -0.282683 
6   -0.286603 
7   -0.278242 
8   -0.115773 
9   0.14664 
10   0.145921 
11   0.170728 
12   -0.064294 
13   -0.184977 
14   -0.184336 
15   -0.332096 
16   -0.331319 
17   -0.21138 
18   0.152395 
19   0.150875 
20   0.154205 
21   0.160472 
22   0.149408 
23   0.14767 
24   0.1691 
25   0.151017 
26   0.155624 
27   0.141179 
28   0.138143 
29   0.158027 
30   0.159471 
31   0.159906 
32   0.151964 
33   0.139461 
34   0.144707 
35   0.133847 
36   0.354471 
37   0.35658 
 
$$$$ 
 
