PCCDB-ID:  58095 
public computational chemistry database (PCCDB) project, http://pccdb.org 
 
 28 30  0  0  0  0  0  0  0  0999 V2000 
   -3.6709    0.7361   -0.1229 C   0  0  0  0  0  0  0  0  0  0  0  0 
   -3.6835   -0.6867   -0.0353 C   0  0  0  0  0  0  0  0  0  0  0  0 
   -2.4817    1.4176   -0.1116 C   0  0  0  0  0  0  0  0  0  0  0  0 
   -2.5103   -1.3891    0.0593 C   0  0  0  0  0  0  0  0  0  0  0  0 
    2.4610    1.3825    0.1634 C   0  0  0  0  0  0  0  0  0  0  0  0 
    3.6367    0.6943    0.2577 C   0  0  0  0  0  0  0  0  0  0  0  0 
   -0.0035    1.3859    0.0139 C   0  0  0  0  0  0  0  0  0  0  0  0 
   -0.0327   -1.4098    0.1641 C   0  0  0  0  0  0  0  0  0  0  0  0 
   -1.2373    0.7229   -0.0139 C   0  0  0  0  0  0  0  0  0  0  0  0 
   -1.2481   -0.7177    0.0706 C   0  0  0  0  0  0  0  0  0  0  0  0 
    1.2089    0.6963    0.1098 C   0  0  0  0  0  0  0  0  0  0  0  0 
    1.2062   -0.7511    0.1728 C   0  0  0  0  0  0  0  0  0  0  0  0 
    3.6535   -0.7354    0.2796 C   0  0  0  0  0  0  0  0  0  0  0  0 
    2.4609   -1.4440    0.2333 C   0  0  0  0  0  0  0  0  0  0  0  0 
    4.8633   -1.4182    0.3885 N   0  0  0  0  0  0  0  0  0  0  0  0 
    2.5640   -2.8723    0.2236 N   0  0  0  0  0  0  0  0  0  0  0  0 
   -4.6109    1.2760   -0.1974 H   0  0  0  0  0  0  0  0  0  0  0  0 
   -4.6342   -1.2133   -0.0445 H   0  0  0  0  0  0  0  0  0  0  0  0 
   -2.4655    2.5033   -0.1760 H   0  0  0  0  0  0  0  0  0  0  0  0 
   -2.5214   -2.4749    0.1253 H   0  0  0  0  0  0  0  0  0  0  0  0 
    2.4623    2.4691    0.1301 H   0  0  0  0  0  0  0  0  0  0  0  0 
    4.5842    1.2264    0.3068 H   0  0  0  0  0  0  0  0  0  0  0  0 
    0.0138    2.4731   -0.0367 H   0  0  0  0  0  0  0  0  0  0  0  0 
   -0.0708   -2.4927    0.2512 H   0  0  0  0  0  0  0  0  0  0  0  0 
    5.6590   -0.9345   -0.0111 H   0  0  0  0  0  0  0  0  0  0  0  0 
    4.7818   -2.3767    0.0582 H   0  0  0  0  0  0  0  0  0  0  0  0 
    2.6487   -3.2596    1.1630 H   0  0  0  0  0  0  0  0  0  0  0  0 
    1.7620   -3.3076   -0.2215 H   0  0  0  0  0  0  0  0  0  0  0  0 
  1  3  2  0  0  0  0 
  1  2  1  0  0  0  0 
  2  4  2  0  0  0  0 
  3  9  1  0  0  0  0 
  4 10  1  0  0  0  0 
  4 20  1  0  0  0  0 
  5  6  1  0  0  0  0 
  6 13  2  0  0  0  0 
  6 22  1  0  0  0  0 
  7 11  1  0  0  0  0 
  8 12  1  0  0  0  0 
  8 24  1  0  0  0  0 
  9  7  2  0  0  0  0 
  9 10  1  0  0  0  0 
 10  8  2  0  0  0  0 
 11  5  2  0  0  0  0 
 11 12  1  0  0  0  0 
 12 14  2  0  0  0  0 
 13 15  1  0  0  0  0 
 14 13  1  0  0  0  0 
 16 14  1  0  0  0  0 
 16 27  1  0  0  0  0 
 17  1  1  0  0  0  0 
 18  2  1  0  0  0  0 
 19  3  1  0  0  0  0 
 21  5  1  0  0  0  0 
 23  7  1  0  0  0  0 
 25 15  1  0  0  0  0 
 26 15  1  0  0  0  0 
 28 16  1  0  0  0  0 
M  END 
>  <HBA> 
2 
 
>  <HBD> 
2 
 
>  <TPSA> 
52.04 
 
>  <cid> 
58095 
 
>  <dipole> 
1.21 
 
>  <excitation_energy_1> 
2.874 
 
>  <excitation_energy_2> 
3.665 
 
>  <excitation_energy_3> 
4.111 
 
>  <excitation_energy_4> 
4.16 
 
>  <homo_energy> 
-4.691 
 
>  <homo_lumo_gap> 
3.287 
 
>  <logP> 
4.32 
 
>  <lumo_energy> 
-1.404 
 
>  <melting_point> 
193.31 
 
>  <molecular_refractivity> 
70.26 
 
>  <oscillator_strength_1> 
0.052 
 
>  <oscillator_strength_2> 
0.0032 
 
>  <oscillator_strength_3> 
0.01 
 
>  <oscillator_strength_4> 
0.089 
 
>  <open_babel_can_smiles> 
Nc1c(N)ccc2c1cc1ccccc1c2 
 
>  <mulliken_charges> 
28 
1   -0.143627 
2   -0.139123 
3   -0.184422 
4   -0.190265 
5   -0.195477 
6   -0.177526 
7   -0.308149 
8   -0.324762 
9   0.146311 
10   0.15526 
11   0.14822 
12   0.1547 
13   0.285853 
14   0.114303 
15   -0.796796 
16   -0.820999 
17   0.126226 
18   0.126349 
19   0.126552 
20   0.122863 
21   0.127639 
22   0.122612 
23   0.126585 
24   0.103599 
25   0.314342 
26   0.337859 
27   0.322415 
28   0.31946 
 
>  <lowdin_charges> 
28 
1   -0.167001 
2   -0.16002 
3   -0.151413 
4   -0.157746 
5   -0.152014 
6   -0.180201 
7   -0.152842 
8   -0.18501 
9   -0.010289 
10   0.00236 
11   -0.009196 
12   -0.010682 
13   0.041497 
14   -0.02093 
15   -0.487151 
16   -0.524077 
17   0.157219 
18   0.157052 
19   0.154224 
20   0.152455 
21   0.156001 
22   0.156135 
23   0.15349 
24   0.143919 
25   0.273369 
26   0.28136 
27   0.270901 
28   0.268589 
 
$$$$ 
 
