PCCDB-ID:  11409 
public computational chemistry database (PCCDB) project, http://pccdb.org 
 
 24 24  0  0  0  0  0  0  0  0999 V2000 
    1.3712   -0.3381   -1.8182 C   0  0  0  0  0  0  0  0  0  0  0  0 
    2.6083    0.1575   -1.0626 C   0  0  0  0  0  0  0  0  0  0  0  0 
    2.4222    0.1377    0.4607 C   0  0  0  0  0  0  0  0  0  0  0  0 
    2.3925    1.5186    6.8897 C   0  0  0  0  0  0  0  0  0  0  0  0 
    2.2398    2.1921    5.6431 C   0  0  0  0  0  0  0  0  0  0  0  0 
    3.6629    0.6328    1.1970 C   0  0  0  0  0  0  0  0  0  0  0  0 
    3.0215    0.3398    6.6037 C   0  0  0  0  0  0  0  0  0  0  0  0 
    2.7881    1.3733    4.6916 C   0  0  0  0  0  0  0  0  0  0  0  0 
    2.9019    1.5678    3.2429 C   0  0  0  0  0  0  0  0  0  0  0  0 
    2.4906    2.5667    2.6813 O   0  0  0  0  0  0  0  0  0  0  0  0 
    3.2703    0.2323    5.2763 O   0  0  0  0  0  0  0  0  0  0  0  0 
    3.5078    0.5289    2.6317 O   0  0  0  0  0  0  0  0  0  0  0  0 
    1.5305   -0.3127   -2.9021 H   0  0  0  0  0  0  0  0  0  0  0  0 
    0.4962    0.2837   -1.5942 H   0  0  0  0  0  0  0  0  0  0  0  0 
    1.1242   -1.3702   -1.5410 H   0  0  0  0  0  0  0  0  0  0  0  0 
    2.8484    1.1798   -1.3865 H   0  0  0  0  0  0  0  0  0  0  0  0 
    3.4754   -0.4613   -1.3346 H   0  0  0  0  0  0  0  0  0  0  0  0 
    2.1922   -0.8818    0.7974 H   0  0  0  0  0  0  0  0  0  0  0  0 
    1.5717    0.7713    0.7394 H   0  0  0  0  0  0  0  0  0  0  0  0 
    2.0779    1.8603    7.8657 H   0  0  0  0  0  0  0  0  0  0  0  0 
    1.7875    3.1547    5.4538 H   0  0  0  0  0  0  0  0  0  0  0  0 
    3.8850    1.6719    0.9391 H   0  0  0  0  0  0  0  0  0  0  0  0 
    4.5332    0.0096    0.9734 H   0  0  0  0  0  0  0  0  0  0  0  0 
    3.3475   -0.4927    7.2093 H   0  0  0  0  0  0  0  0  0  0  0  0 
  1 14  1  0  0  0  0 
  1 15  1  0  0  0  0 
  1  2  1  0  0  0  0 
  2  3  1  0  0  0  0 
  3 19  1  0  0  0  0 
  3 18  1  0  0  0  0 
  3  6  1  0  0  0  0 
  4 20  1  0  0  0  0 
  5  4  1  0  0  0  0 
  6 12  1  0  0  0  0 
  7  4  2  0  0  0  0 
  7 24  1  0  0  0  0 
  8 11  1  0  0  0  0 
  8  5  2  0  0  0  0 
  9  8  1  0  0  0  0 
 10  9  2  0  0  0  0 
 11  7  1  0  0  0  0 
 12  9  1  0  0  0  0 
 13  1  1  0  0  0  0 
 16  2  1  0  0  0  0 
 17  2  1  0  0  0  0 
 21  5  1  0  0  0  0 
 22  6  1  0  0  0  0 
 23  6  1  0  0  0  0 
M  END 
>  <HBA> 
3 
 
>  <HBD> 
0 
 
>  <TPSA> 
39.44 
 
>  <cid> 
11409 
 
>  <dipole> 
1.61 
 
>  <excitation_energy_1> 
4.999 
 
>  <excitation_energy_2> 
5.114 
 
>  <excitation_energy_3> 
6.012 
 
>  <excitation_energy_4> 
6.127 
 
>  <homo_energy> 
-6.512 
 
>  <homo_lumo_gap> 
5.475 
 
>  <logP> 
2.236 
 
>  <lumo_energy> 
-1.037 
 
>  <melting_point> 
26.5 
 
>  <molecular_refractivity> 
44.41 
 
>  <oscillator_strength_1> 
0.0017 
 
>  <oscillator_strength_2> 
0.4276 
 
>  <oscillator_strength_3> 
0.0139 
 
>  <oscillator_strength_4> 
0.005 
 
>  <open_babel_can_smiles> 
CCCCOC(=O)c1ccco1 
 
>  <mulliken_charges> 
24 
1   -0.441147 
2   -0.259074 
3   -0.273384 
4   -0.189216 
5   -0.161229 
6   -0.0419 
7   0.100694 
8   0.278133 
9   0.576374 
10   -0.502664 
11   -0.428524 
12   -0.473215 
13   0.144619 
14   0.147693 
15   0.143955 
16   0.140408 
17   0.132408 
18   0.143109 
19   0.160454 
20   0.151247 
21   0.168474 
22   0.167583 
23   0.150388 
24   0.164812 
 
>  <lowdin_charges> 
24 
1   -0.439976 
2   -0.271325 
3   -0.287487 
4   -0.203167 
5   -0.161575 
6   -0.127922 
7   -0.058284 
8   0.026362 
9   0.187166 
10   -0.277652 
11   -0.076879 
12   -0.183868 
13   0.149099 
14   0.150075 
15   0.146718 
16   0.142641 
17   0.140044 
18   0.145945 
19   0.156363 
20   0.17373 
21   0.184565 
22   0.156458 
23   0.152269 
24   0.176699 
 
$$$$ 
 
