PCCDB-ID:  11549 
public computational chemistry database (PCCDB) project, http://pccdb.org 
 
 24 24  0  0  0  0  0  0  0  0999 V2000 
    1.0010    0.0567   -0.1209 C   0  0  0  0  0  0  0  0  0  0  0  0 
    3.1330    0.2241   -1.4105 C   0  0  0  0  0  0  0  0  0  0  0  0 
    3.1979   -0.3297    2.9254 C   0  0  0  0  0  0  0  0  0  0  0  0 
    2.6859   -1.4999    2.0726 C   0  0  0  0  0  0  0  0  0  0  0  0 
    2.6805    1.0150    2.3935 C   0  0  0  0  0  0  0  0  0  0  0  0 
    3.0329   -1.3030    0.5880 C   0  0  0  0  0  0  0  0  0  0  0  0 
    3.0289    1.1999    0.9073 C   0  0  0  0  0  0  0  0  0  0  0  0 
    2.5390    0.0433   -0.0019 C   0  0  0  0  0  0  0  0  0  0  0  0 
    0.6558   -0.7516   -0.7776 H   0  0  0  0  0  0  0  0  0  0  0  0 
    0.6545    1.0050   -0.5506 H   0  0  0  0  0  0  0  0  0  0  0  0 
    0.4999   -0.0686    0.8442 H   0  0  0  0  0  0  0  0  0  0  0  0 
    2.8152   -0.5850   -2.0804 H   0  0  0  0  0  0  0  0  0  0  0  0 
    4.2297    0.2238   -1.3828 H   0  0  0  0  0  0  0  0  0  0  0  0 
    2.8098    1.1729   -1.8573 H   0  0  0  0  0  0  0  0  0  0  0  0 
    4.2982   -0.3247    2.9045 H   0  0  0  0  0  0  0  0  0  0  0  0 
    2.9066   -0.4642    3.9751 H   0  0  0  0  0  0  0  0  0  0  0  0 
    1.5982   -1.5943    2.1974 H   0  0  0  0  0  0  0  0  0  0  0  0 
    3.1161   -2.4452    2.4282 H   0  0  0  0  0  0  0  0  0  0  0  0 
    3.1052    1.8425    2.9765 H   0  0  0  0  0  0  0  0  0  0  0  0 
    1.5923    1.0695    2.5349 H   0  0  0  0  0  0  0  0  0  0  0  0 
    2.6318   -2.1338   -0.0093 H   0  0  0  0  0  0  0  0  0  0  0  0 
    4.1271   -1.3468    0.4787 H   0  0  0  0  0  0  0  0  0  0  0  0 
    4.1228    1.2744    0.8130 H   0  0  0  0  0  0  0  0  0  0  0  0 
    2.6237    2.1524    0.5381 H   0  0  0  0  0  0  0  0  0  0  0  0 
  1  8  1  0  0  0  0 
  1 11  1  0  0  0  0 
  2 13  1  0  0  0  0 
  2  8  1  0  0  0  0 
  3 16  1  0  0  0  0 
  4 17  1  0  0  0  0 
  4 18  1  0  0  0  0 
  4  3  1  0  0  0  0 
  5 20  1  0  0  0  0 
  5  3  1  0  0  0  0 
  5 19  1  0  0  0  0 
  6  4  1  0  0  0  0 
  7  5  1  0  0  0  0 
  8  6  1  0  0  0  0 
  8  7  1  0  0  0  0 
  9  1  1  0  0  0  0 
 10  1  1  0  0  0  0 
 12  2  1  0  0  0  0 
 14  2  1  0  0  0  0 
 15  3  1  0  0  0  0 
 21  6  1  0  0  0  0 
 22  6  1  0  0  0  0 
 23  7  1  0  0  0  0 
 24  7  1  0  0  0  0 
M  END 
>  <HBA> 
0 
 
>  <HBD> 
0 
 
>  <TPSA> 
0.0 
 
>  <cid> 
11549 
 
>  <dipole> 
0.09 
 
>  <excitation_energy_1> 
7.249 
 
>  <excitation_energy_2> 
7.385 
 
>  <excitation_energy_3> 
7.646 
 
>  <excitation_energy_4> 
7.715 
 
>  <homo_energy> 
-7.747 
 
>  <homo_lumo_gap> 
9.851 
 
>  <logP> 
2.977 
 
>  <lumo_energy> 
2.103 
 
>  <melting_point> 
13.37 
 
>  <molecular_refractivity> 
38.2 
 
>  <oscillator_strength_1> 
0.0067 
 
>  <oscillator_strength_2> 
0.0129 
 
>  <oscillator_strength_3> 
0.0193 
 
>  <oscillator_strength_4> 
0.0241 
 
>  <open_babel_can_smiles> 
CC1(C)CCCCC1 
 
>  <mulliken_charges> 
24 
1   -0.452546 
2   -0.445458 
3   -0.253818 
4   -0.263773 
5   -0.263678 
6   -0.256359 
7   -0.256456 
8   0.104822 
9   0.136853 
10   0.136817 
11   0.143927 
12   0.135743 
13   0.135826 
14   0.135733 
15   0.125576 
16   0.127716 
17   0.130368 
18   0.128764 
19   0.128698 
20   0.130417 
21   0.123198 
22   0.122191 
23   0.122209 
24   0.123229 
 
>  <lowdin_charges> 
24 
1   -0.447923 
2   -0.440001 
3   -0.273584 
4   -0.278125 
5   -0.279158 
6   -0.276592 
7   -0.275511 
8   0.009581 
9   0.147524 
10   0.146734 
11   0.146694 
12   0.14652 
13   0.142918 
14   0.145738 
15   0.133919 
16   0.140741 
17   0.136132 
18   0.143197 
19   0.144083 
20   0.136162 
21   0.140878 
22   0.135069 
23   0.135058 
24   0.139945 
 
$$$$ 
 
