PCCDB-ID:  7957 
public computational chemistry database (PCCDB) project, http://pccdb.org 
 
 30 29  0  0  0  0  0  0  0  0999 V2000 
    1.1665   -2.7193    1.5803 C   0  0  0  0  0  0  0  0  0  0  0  0 
    2.0215   -2.4992   -0.7860 C   0  0  0  0  0  0  0  0  0  0  0  0 
    6.3896    1.0143   -1.1882 C   0  0  0  0  0  0  0  0  0  0  0  0 
    7.0387    2.0102    1.0407 C   0  0  0  0  0  0  0  0  0  0  0  0 
    3.0874   -1.1486    1.1054 C   0  0  0  0  0  0  0  0  0  0  0  0 
    5.0618    0.4431    0.9200 C   0  0  0  0  0  0  0  0  0  0  0  0 
    2.4011   -2.4685    0.7021 C   0  0  0  0  0  0  0  0  0  0  0  0 
    6.4437    0.7858    0.3299 C   0  0  0  0  0  0  0  0  0  0  0  0 
    4.4557   -0.8907    0.4560 C   0  0  0  0  0  0  0  0  0  0  0  0 
    5.3565   -1.9822    0.6889 O   0  0  0  0  0  0  0  0  0  0  0  0 
    0.6866   -3.6722    1.3272 H   0  0  0  0  0  0  0  0  0  0  0  0 
    0.4187   -1.9262    1.4468 H   0  0  0  0  0  0  0  0  0  0  0  0 
    1.4303   -2.7502    2.6447 H   0  0  0  0  0  0  0  0  0  0  0  0 
    1.5276   -3.4439   -1.0423 H   0  0  0  0  0  0  0  0  0  0  0  0 
    2.8979   -2.4025   -1.4355 H   0  0  0  0  0  0  0  0  0  0  0  0 
    1.3268   -1.6846   -1.0321 H   0  0  0  0  0  0  0  0  0  0  0  0 
    7.3819    1.2678   -1.5796 H   0  0  0  0  0  0  0  0  0  0  0  0 
    5.7127    1.8426   -1.4382 H   0  0  0  0  0  0  0  0  0  0  0  0 
    6.0448    0.1239   -1.7247 H   0  0  0  0  0  0  0  0  0  0  0  0 
    8.0342    2.2510    0.6494 H   0  0  0  0  0  0  0  0  0  0  0  0 
    7.1358    1.8403    2.1201 H   0  0  0  0  0  0  0  0  0  0  0  0 
    6.4042    2.8954    0.8999 H   0  0  0  0  0  0  0  0  0  0  0  0 
    3.2221   -1.1373    2.1995 H   0  0  0  0  0  0  0  0  0  0  0  0 
    2.4204   -0.3038    0.8762 H   0  0  0  0  0  0  0  0  0  0  0  0 
    4.3544    1.2535    0.6878 H   0  0  0  0  0  0  0  0  0  0  0  0 
    5.1399    0.4182    2.0195 H   0  0  0  0  0  0  0  0  0  0  0  0 
    3.1221   -3.2771    0.8819 H   0  0  0  0  0  0  0  0  0  0  0  0 
    7.0996   -0.0749    0.5167 H   0  0  0  0  0  0  0  0  0  0  0  0 
    4.3413   -0.8746   -0.6328 H   0  0  0  0  0  0  0  0  0  0  0  0 
    5.5007   -2.0328    1.6486 H   0  0  0  0  0  0  0  0  0  0  0  0 
  1 13  1  0  0  0  0 
  2  7  1  0  0  0  0 
  3  8  1  0  0  0  0 
  4 21  1  0  0  0  0 
  5 23  1  0  0  0  0 
  6 26  1  0  0  0  0 
  7 27  1  0  0  0  0 
  7  5  1  0  0  0  0 
  7  1  1  0  0  0  0 
  8 28  1  0  0  0  0 
  8  6  1  0  0  0  0 
  8  4  1  0  0  0  0 
  9 10  1  0  0  0  0 
  9  6  1  0  0  0  0 
  9  5  1  0  0  0  0 
 10 30  1  0  0  0  0 
 11  1  1  0  0  0  0 
 12  1  1  0  0  0  0 
 14  2  1  0  0  0  0 
 15  2  1  0  0  0  0 
 16  2  1  0  0  0  0 
 17  3  1  0  0  0  0 
 18  3  1  0  0  0  0 
 19  3  1  0  0  0  0 
 20  4  1  0  0  0  0 
 22  4  1  0  0  0  0 
 24  5  1  0  0  0  0 
 25  6  1  0  0  0  0 
 29  9  1  0  0  0  0 
M  END 
>  <HBA> 
1 
 
>  <HBD> 
1 
 
>  <TPSA> 
20.23 
 
>  <cid> 
7957 
 
>  <dipole> 
1.32 
 
>  <excitation_energy_1> 
6.402 
 
>  <excitation_energy_2> 
6.987 
 
>  <excitation_energy_3> 
7.156 
 
>  <excitation_energy_4> 
7.246 
 
>  <homo_energy> 
-7.061 
 
>  <homo_lumo_gap> 
8.898 
 
>  <logP> 
2.439 
 
>  <lumo_energy> 
1.837 
 
>  <melting_point> 
-9.94 
 
>  <molecular_refractivity> 
46.54 
 
>  <oscillator_strength_1> 
0.0152 
 
>  <oscillator_strength_2> 
0.0035 
 
>  <oscillator_strength_3> 
0.0008 
 
>  <oscillator_strength_4> 
0.0002 
 
>  <open_babel_can_smiles> 
OC(CC(C)C)CC(C)C 
 
>  <mulliken_charges> 
30 
1   -0.443117 
2   -0.450143 
3   -0.450217 
4   -0.443011 
5   -0.26957 
6   -0.271273 
7   -0.06009 
8   -0.059309 
9   0.123495 
10   -0.621504 
11   0.140363 
12   0.136532 
13   0.135729 
14   0.140548 
15   0.151542 
16   0.133789 
17   0.14054 
18   0.133827 
19   0.151668 
20   0.140325 
21   0.135708 
22   0.136606 
23   0.112276 
24   0.125787 
25   0.126157 
26   0.112399 
27   0.135444 
28   0.134781 
29   0.139971 
30   0.380747 
 
>  <lowdin_charges> 
30 
1   -0.443013 
2   -0.448217 
3   -0.44789 
4   -0.441903 
5   -0.290415 
6   -0.290748 
7   -0.123349 
8   -0.123056 
9   -0.002239 
10   -0.461067 
11   0.147922 
12   0.144488 
13   0.143491 
14   0.149154 
15   0.151815 
16   0.143346 
17   0.148692 
18   0.143334 
19   0.152049 
20   0.147421 
21   0.143255 
22   0.144268 
23   0.131647 
24   0.143435 
25   0.143735 
26   0.131457 
27   0.143884 
28   0.143439 
29   0.1406 
30   0.334464 
 
$$$$ 
 
