PCCDB-ID:  13220 
public computational chemistry database (PCCDB) project, http://pccdb.org 
 
 28 28  0  0  0  0  0  0  0  0999 V2000 
    0.9656    0.0433   -0.1789 C   0  0  0  0  0  0  0  0  0  0  0  0 
    2.7354    0.3587    1.5519 C   0  0  0  0  0  0  0  0  0  0  0  0 
    4.7107   -2.4805   -1.5697 C   0  0  0  0  0  0  0  0  0  0  0  0 
    5.3322   -1.3990    0.5903 C   0  0  0  0  0  0  0  0  0  0  0  0 
    3.0366    1.3803   -0.7511 C   0  0  0  0  0  0  0  0  0  0  0  0 
    5.0496    0.0263   -1.4909 C   0  0  0  0  0  0  0  0  0  0  0  0 
    4.5477    1.3132   -0.8639 C   0  0  0  0  0  0  0  0  0  0  0  0 
    2.4828    0.1517    0.0450 C   0  0  0  0  0  0  0  0  0  0  0  0 
    4.5194   -1.2214   -0.7083 C   0  0  0  0  0  0  0  0  0  0  0  0 
    3.0692   -1.1226   -0.4279 N   0  0  0  0  0  0  0  0  0  0  0  0 
    5.2880    2.1888   -0.4524 O   0  0  0  0  0  0  0  0  0  0  0  0 
    0.4591    0.9569    0.1490 H   0  0  0  0  0  0  0  0  0  0  0  0 
    0.5567   -0.8023    0.3846 H   0  0  0  0  0  0  0  0  0  0  0  0 
    0.7305   -0.1061   -1.2410 H   0  0  0  0  0  0  0  0  0  0  0  0 
    2.1096    1.1767    1.9265 H   0  0  0  0  0  0  0  0  0  0  0  0 
    3.7723    0.6224    1.7728 H   0  0  0  0  0  0  0  0  0  0  0  0 
    2.4845   -0.5532    2.1019 H   0  0  0  0  0  0  0  0  0  0  0  0 
    5.7667   -2.6213   -1.8228 H   0  0  0  0  0  0  0  0  0  0  0  0 
    4.1491   -2.4074   -2.5104 H   0  0  0  0  0  0  0  0  0  0  0  0 
    4.3615   -3.3677   -1.0306 H   0  0  0  0  0  0  0  0  0  0  0  0 
    6.3565   -1.7053    0.3490 H   0  0  0  0  0  0  0  0  0  0  0  0 
    4.8744   -2.1721    1.2146 H   0  0  0  0  0  0  0  0  0  0  0  0 
    5.4044   -0.4790    1.1753 H   0  0  0  0  0  0  0  0  0  0  0  0 
    2.6131    1.3556   -1.7656 H   0  0  0  0  0  0  0  0  0  0  0  0 
    2.7492    2.3253   -0.2801 H   0  0  0  0  0  0  0  0  0  0  0  0 
    6.1433    0.0421   -1.5262 H   0  0  0  0  0  0  0  0  0  0  0  0 
    4.6703   -0.0248   -2.5220 H   0  0  0  0  0  0  0  0  0  0  0  0 
    2.5741   -1.3910   -1.2765 H   0  0  0  0  0  0  0  0  0  0  0  0 
  1  8  1  0  0  0  0 
  1 12  1  0  0  0  0 
  1 13  1  0  0  0  0 
  2 16  1  0  0  0  0 
  2 15  1  0  0  0  0 
  2 17  1  0  0  0  0 
  3 20  1  0  0  0  0 
  3  9  1  0  0  0  0 
  4 23  1  0  0  0  0 
  4 22  1  0  0  0  0 
  5 25  1  0  0  0  0 
  5  8  1  0  0  0  0 
  6  7  1  0  0  0  0 
  6  9  1  0  0  0  0 
  7  5  1  0  0  0  0 
  7 11  2  0  0  0  0 
  8  2  1  0  0  0  0 
  9 10  1  0  0  0  0 
  9  4  1  0  0  0  0 
 10  8  1  0  0  0  0 
 14  1  1  0  0  0  0 
 18  3  1  0  0  0  0 
 19  3  1  0  0  0  0 
 21  4  1  0  0  0  0 
 24  5  1  0  0  0  0 
 26  6  1  0  0  0  0 
 27  6  1  0  0  0  0 
 28 10  1  0  0  0  0 
M  END 
>  <HBA> 
2 
 
>  <HBD> 
1 
 
>  <TPSA> 
29.1 
 
>  <cid> 
13220 
 
>  <dipole> 
2.96 
 
>  <excitation_energy_1> 
4.179 
 
>  <excitation_energy_2> 
4.775 
 
>  <excitation_energy_3> 
5.61 
 
>  <excitation_energy_4> 
5.945 
 
>  <homo_energy> 
-6.155 
 
>  <homo_lumo_gap> 
5.815 
 
>  <logP> 
1.825 
 
>  <lumo_energy> 
-0.34 
 
>  <melting_point> 
64.64 
 
>  <molecular_refractivity> 
50.26 
 
>  <oscillator_strength_1> 
0.0 
 
>  <oscillator_strength_2> 
0.0231 
 
>  <oscillator_strength_3> 
0.0485 
 
>  <oscillator_strength_4> 
0.0213 
 
>  <open_babel_can_smiles> 
O=C1CC(C)(C)NC(C1)(C)C 
 
>  <mulliken_charges> 
28 
1   -0.459826 
2   -0.445289 
3   -0.460194 
4   -0.445522 
5   -0.338451 
6   -0.338882 
7   0.443548 
8   0.195311 
9   0.195419 
10   -0.568221 
11   -0.455969 
12   0.150499 
13   0.160114 
14   0.133039 
15   0.141136 
16   0.158279 
17   0.155286 
18   0.150602 
19   0.133115 
20   0.160199 
21   0.141127 
22   0.155433 
23   0.158345 
24   0.139472 
25   0.15679 
26   0.156895 
27   0.139585 
28   0.28816 
 
>  <lowdin_charges> 
28 
1   -0.444388 
2   -0.449616 
3   -0.443386 
4   -0.449714 
5   -0.318951 
6   -0.316699 
7   0.154536 
8   0.070677 
9   0.07096 
10   -0.358574 
11   -0.24053 
12   0.155807 
13   0.159343 
14   0.141761 
15   0.151965 
16   0.154322 
17   0.158319 
18   0.154129 
19   0.14306 
20   0.159004 
21   0.150165 
22   0.159128 
23   0.155461 
24   0.154142 
25   0.162357 
26   0.1603 
27   0.15408 
28   0.252344 
 
$$$$ 
 
