PCCDB-ID:  19840 
public computational chemistry database (PCCDB) project, http://pccdb.org 
 
 26 26  0  0  0  0  0  0  0  0999 V2000 
    0.3082   -1.5892   -2.0489 C   0  0  0  0  0  0  0  0  0  0  0  0 
    8.8884   -2.6982   -0.9847 C   0  0  0  0  0  0  0  0  0  0  0  0 
    8.1907   -2.2115   -2.0954 C   0  0  0  0  0  0  0  0  0  0  0  0 
    8.2694   -2.6913    0.2630 C   0  0  0  0  0  0  0  0  0  0  0  0 
    6.8948   -1.7268   -1.9583 C   0  0  0  0  0  0  0  0  0  0  0  0 
    6.9669   -2.2052    0.4182 C   0  0  0  0  0  0  0  0  0  0  0  0 
    2.9337   -0.5835    0.2923 C   0  0  0  0  0  0  0  0  0  0  0  0 
    4.3044   -1.1725    0.5742 C   0  0  0  0  0  0  0  0  0  0  0  0 
    6.2774   -1.7202   -0.6991 C   0  0  0  0  0  0  0  0  0  0  0  0 
    0.9483   -0.7907   -1.0028 N   0  0  0  0  0  0  0  0  0  0  0  0 
    2.1716   -1.4872   -0.5740 N   0  0  0  0  0  0  0  0  0  0  0  0 
    5.0075   -1.2137   -0.6680 O   0  0  0  0  0  0  0  0  0  0  0  0 
   -0.6813   -1.1665   -2.2492 H   0  0  0  0  0  0  0  0  0  0  0  0 
    0.2022   -2.6554   -1.7903 H   0  0  0  0  0  0  0  0  0  0  0  0 
    0.8967   -1.5174   -2.9718 H   0  0  0  0  0  0  0  0  0  0  0  0 
    9.9000   -3.0783   -1.0941 H   0  0  0  0  0  0  0  0  0  0  0  0 
    8.6592   -2.2078   -3.0761 H   0  0  0  0  0  0  0  0  0  0  0  0 
    8.7989   -3.0668    1.1350 H   0  0  0  0  0  0  0  0  0  0  0  0 
    6.3406   -1.3421   -2.8090 H   0  0  0  0  0  0  0  0  0  0  0  0 
    6.5074   -2.2065    1.4000 H   0  0  0  0  0  0  0  0  0  0  0  0 
    3.0380    0.4253   -0.1372 H   0  0  0  0  0  0  0  0  0  0  0  0 
    2.4022   -0.4827    1.2485 H   0  0  0  0  0  0  0  0  0  0  0  0 
    4.2087   -2.1852    0.9879 H   0  0  0  0  0  0  0  0  0  0  0  0 
    4.8473   -0.5472    1.2966 H   0  0  0  0  0  0  0  0  0  0  0  0 
    0.3436   -0.8543   -0.1807 H   0  0  0  0  0  0  0  0  0  0  0  0 
    2.7216   -1.5726   -1.4316 H   0  0  0  0  0  0  0  0  0  0  0  0 
  1 14  1  0  0  0  0 
  1 10  1  0  0  0  0 
  2  4  2  0  0  0  0 
  3  5  2  0  0  0  0 
  3  2  1  0  0  0  0 
  4  6  1  0  0  0  0 
  4 18  1  0  0  0  0 
  5  9  1  0  0  0  0 
  6 20  1  0  0  0  0 
  7  8  1  0  0  0  0 
  7 22  1  0  0  0  0 
  8 23  1  0  0  0  0 
  8 24  1  0  0  0  0 
  9 12  1  0  0  0  0 
  9  6  2  0  0  0  0 
 10 11  1  0  0  0  0 
 10 25  1  0  0  0  0 
 11  7  1  0  0  0  0 
 12  8  1  0  0  0  0 
 13  1  1  0  0  0  0 
 15  1  1  0  0  0  0 
 16  2  1  0  0  0  0 
 17  3  1  0  0  0  0 
 19  5  1  0  0  0  0 
 21  7  1  0  0  0  0 
 26 11  1  0  0  0  0 
M  END 
>  <HBA> 
3 
 
>  <HBD> 
2 
 
>  <TPSA> 
33.29 
 
>  <cid> 
19840 
 
>  <dipole> 
1.03 
 
>  <excitation_energy_1> 
4.711 
 
>  <excitation_energy_2> 
4.827 
 
>  <excitation_energy_3> 
5.06 
 
>  <excitation_energy_4> 
5.072 
 
>  <homo_energy> 
-5.206 
 
>  <homo_lumo_gap> 
5.274 
 
>  <logP> 
1.571 
 
>  <lumo_energy> 
0.068 
 
>  <melting_point> 
61.45 
 
>  <molecular_refractivity> 
48.15 
 
>  <oscillator_strength_1> 
0.0005 
 
>  <oscillator_strength_2> 
0.0006 
 
>  <oscillator_strength_3> 
0.0281 
 
>  <oscillator_strength_4> 
0.0043 
 
>  <open_babel_can_smiles> 
CNNCCOc1ccccc1 
 
>  <mulliken_charges> 
26 
1   -0.307045 
2   -0.133121 
3   -0.132558 
4   -0.13769 
5   -0.175208 
6   -0.193152 
7   -0.122889 
8   -0.04643 
9   0.381549 
10   -0.430192 
11   -0.468493 
12   -0.532303 
13   0.152498 
14   0.139783 
15   0.151073 
16   0.125303 
17   0.1298 
18   0.129299 
19   0.13385 
20   0.133414 
21   0.146092 
22   0.136945 
23   0.153054 
24   0.142898 
25   0.305149 
26   0.318374 
 
>  <lowdin_charges> 
26 
1   -0.366709 
2   -0.177247 
3   -0.146467 
4   -0.147106 
5   -0.185666 
6   -0.2141 
7   -0.212923 
8   -0.132925 
9   0.105478 
10   -0.308815 
11   -0.318792 
12   -0.209769 
13   0.154653 
14   0.131281 
15   0.146619 
16   0.155681 
17   0.157925 
18   0.158258 
19   0.165285 
20   0.161817 
21   0.138205 
22   0.144663 
23   0.145638 
24   0.145038 
25   0.25222 
26   0.257757 
 
$$$$ 
 
