PCCDB-ID:  36641 
public computational chemistry database (PCCDB) project, http://pccdb.org 
 
 31 31  0  0  1  0  0  0  0  0999 V2000 
    1.5958    0.9248    0.4477 C   0  0  0  0  0  0  0  0  0  0  0  0 
    3.0575    0.6965    0.0494 C   0  0  0  0  0  0  0  0  0  0  0  0 
    4.0919    1.1204   -6.3648 C   0  0  0  0  0  0  0  0  0  0  0  0 
    3.7083   -0.2161   -6.2511 C   0  0  0  0  0  0  0  0  0  0  0  0 
    4.7043    1.7614   -5.2840 C   0  0  0  0  0  0  0  0  0  0  0  0 
    3.9348   -0.9090   -5.0592 C   0  0  0  0  0  0  0  0  0  0  0  0 
    4.9378    1.0678   -4.0978 C   0  0  0  0  0  0  0  0  0  0  0  0 
    3.1871   -0.1135   -1.2334 C   0  0  0  0  0  0  0  0  0  0  0  0 
    4.5564   -0.2758   -3.9769 C   0  0  0  0  0  0  0  0  0  0  0  0 
    4.8438   -1.0356   -2.6871 C   0  0  1  0  0  0  0  0  0  0  0  0 
    6.3136   -1.4641   -2.5795 C   0  0  0  0  0  0  0  0  0  0  0  0 
    7.0631   -1.3525   -1.5502 N   0  0  0  0  0  0  0  0  0  0  0  0 
    6.8027   -2.1353   -3.6906 N   0  0  0  0  0  0  0  0  0  0  0  0 
    8.1914   -2.4039   -3.6189 O   0  0  0  0  0  0  0  0  0  0  0  0 
    4.5743   -0.2703   -1.5266 O   0  0  0  0  0  0  0  0  0  0  0  0 
    1.5300    1.5070    1.3726 H   0  0  0  0  0  0  0  0  0  0  0  0 
    1.0729   -0.0245    0.6155 H   0  0  0  0  0  0  0  0  0  0  0  0 
    1.0500    1.4729   -0.3298 H   0  0  0  0  0  0  0  0  0  0  0  0 
    3.5921    0.1726    0.8516 H   0  0  0  0  0  0  0  0  0  0  0  0 
    3.5661    1.6581   -0.0925 H   0  0  0  0  0  0  0  0  0  0  0  0 
    3.9122    1.6623   -7.2893 H   0  0  0  0  0  0  0  0  0  0  0  0 
    3.2249   -0.7188   -7.0844 H   0  0  0  0  0  0  0  0  0  0  0  0 
    5.0018    2.8033   -5.3672 H   0  0  0  0  0  0  0  0  0  0  0  0 
    3.6244   -1.9477   -4.9689 H   0  0  0  0  0  0  0  0  0  0  0  0 
    5.4103    1.5615   -3.2535 H   0  0  0  0  0  0  0  0  0  0  0  0 
    2.6787    0.3957   -2.0655 H   0  0  0  0  0  0  0  0  0  0  0  0 
    2.7208   -1.1059   -1.1154 H   0  0  0  0  0  0  0  0  0  0  0  0 
    4.2372   -1.9563   -2.6778 H   0  0  0  0  0  0  0  0  0  0  0  0 
    6.5542   -0.9085   -0.7863 H   0  0  0  0  0  0  0  0  0  0  0  0 
    6.6222   -1.6665   -4.5749 H   0  0  0  0  0  0  0  0  0  0  0  0 
    8.4108   -2.0680   -2.7162 H   0  0  0  0  0  0  0  0  0  0  0  0 
  1 17  1  0  0  0  0 
  1 16  1  0  0  0  0 
  2  1  1  0  0  0  0 
  2 19  1  0  0  0  0 
  3  4  2  0  0  0  0 
  3  5  1  0  0  0  0 
  4  6  1  0  0  0  0 
  5  7  2  0  0  0  0 
  6 24  1  0  0  0  0 
  6  9  2  0  0  0  0 
  7  9  1  0  0  0  0 
  7 25  1  0  0  0  0 
  8 27  1  0  0  0  0 
  8  2  1  0  0  0  0 
  9 10  1  0  0  0  0 
 10 28  1  1  0  0  0 
 10 11  1  0  0  0  0 
 10 15  1  0  0  0  0 
 11 12  2  0  0  0  0 
 12 29  1  0  0  0  0 
 13 14  1  0  0  0  0 
 13 11  1  0  0  0  0 
 14 31  1  0  0  0  0 
 15  8  1  0  0  0  0 
 18  1  1  0  0  0  0 
 20  2  1  0  0  0  0 
 21  3  1  0  0  0  0 
 22  4  1  0  0  0  0 
 23  5  1  0  0  0  0 
 26  8  1  0  0  0  0 
 30 13  1  0  0  0  0 
M  END 
>  <HBA> 
4 
 
>  <HBD> 
2 
 
>  <TPSA> 
67.84 
 
>  <cid> 
36641 
 
>  <dipole> 
4.81 
 
>  <excitation_energy_1> 
4.678 
 
>  <excitation_energy_2> 
4.818 
 
>  <excitation_energy_3> 
5.265 
 
>  <excitation_energy_4> 
5.47 
 
>  <homo_energy> 
-5.842 
 
>  <homo_lumo_gap> 
5.317 
 
>  <logP> 
2.601 
 
>  <lumo_energy> 
-0.525 
 
>  <melting_point> 
121.56 
 
>  <molecular_refractivity> 
58.84 
 
>  <oscillator_strength_1> 
0.0042 
 
>  <oscillator_strength_2> 
0.0055 
 
>  <oscillator_strength_3> 
0.0004 
 
>  <oscillator_strength_4> 
0.0173 
 
>  <open_babel_can_smiles> 
CCCO[C@@H](c1ccccc1)C(=N)NO 
 
>  <mulliken_charges> 
31 
1   -0.453115 
2   -0.270932 
3   -0.126501 
4   -0.129203 
5   -0.12882 
6   -0.192709 
7   -0.169148 
8   -0.008655 
9   0.1031 
10   0.044151 
11   0.452345 
12   -0.697805 
13   -0.335453 
14   -0.538825 
15   -0.50649 
16   0.154168 
17   0.147332 
18   0.147899 
19   0.148906 
20   0.149714 
21   0.137183 
22   0.13843 
23   0.138375 
24   0.139565 
25   0.151742 
26   0.13636 
27   0.125037 
28   0.152807 
29   0.315978 
30   0.344814 
31   0.42975 
 
>  <lowdin_charges> 
31 
1   -0.445849 
2   -0.278988 
3   -0.153096 
4   -0.154025 
5   -0.148471 
6   -0.169725 
7   -0.156898 
8   -0.129603 
9   -0.03619 
10   -0.012987 
11   0.064573 
12   -0.438131 
13   -0.167959 
14   -0.409951 
15   -0.26192 
16   0.156745 
17   0.149297 
18   0.150746 
19   0.150696 
20   0.150053 
21   0.161658 
22   0.162928 
23   0.16034 
24   0.159656 
25   0.169349 
26   0.13736 
27   0.129367 
28   0.151847 
29   0.272707 
30   0.285088 
31   0.351385 
 
$$$$ 
 
