PCCDB-ID:  15119 
public computational chemistry database (PCCDB) project, http://pccdb.org 
 
 19 18  0  0  0  0  0  0  0  0999 V2000 
    3.6976   -1.0412   -0.6925 C   0  0  0  0  0  0  0  0  0  0  0  0 
    7.5750    3.8729    0.7740 C   0  0  0  0  0  0  0  0  0  0  0  0 
    2.9323    0.0088   -0.4011 C   0  0  0  0  0  0  0  0  0  0  0  0 
    6.9029    2.5520    0.3877 C   0  0  0  0  0  0  0  0  0  0  0  0 
    3.4391    1.3634    0.0034 C   0  0  0  0  0  0  0  0  0  0  0  0 
    5.3824    2.6442    0.3997 C   0  0  0  0  0  0  0  0  0  0  0  0 
    4.8481    1.3866    0.0278 O   0  0  0  0  0  0  0  0  0  0  0  0 
    3.2630   -1.9952   -0.9773 H   0  0  0  0  0  0  0  0  0  0  0  0 
    4.7799   -0.9741   -0.6556 H   0  0  0  0  0  0  0  0  0  0  0  0 
    8.6658    3.7767    0.7593 H   0  0  0  0  0  0  0  0  0  0  0  0 
    7.2840    4.1914    1.7826 H   0  0  0  0  0  0  0  0  0  0  0  0 
    7.3040    4.6785    0.0805 H   0  0  0  0  0  0  0  0  0  0  0  0 
    1.8458   -0.0717   -0.4425 H   0  0  0  0  0  0  0  0  0  0  0  0 
    7.2087    1.7542    1.0758 H   0  0  0  0  0  0  0  0  0  0  0  0 
    7.2238    2.2414   -0.6144 H   0  0  0  0  0  0  0  0  0  0  0  0 
    3.0302    1.6290    0.9972 H   0  0  0  0  0  0  0  0  0  0  0  0 
    3.0514    2.1276   -0.6974 H   0  0  0  0  0  0  0  0  0  0  0  0 
    5.0395    3.4271   -0.3002 H   0  0  0  0  0  0  0  0  0  0  0  0 
    5.0225    2.9309    1.4040 H   0  0  0  0  0  0  0  0  0  0  0  0 
  1  9  1  0  0  0  0 
  1  3  2  0  0  0  0 
  2 11  1  0  0  0  0 
  3  5  1  0  0  0  0 
  4  6  1  0  0  0  0 
  4  2  1  0  0  0  0 
  4 14  1  0  0  0  0 
  5  7  1  0  0  0  0 
  5 16  1  0  0  0  0 
  6 19  1  0  0  0  0 
  7  6  1  0  0  0  0 
  8  1  1  0  0  0  0 
 10  2  1  0  0  0  0 
 12  2  1  0  0  0  0 
 13  3  1  0  0  0  0 
 15  4  1  0  0  0  0 
 17  5  1  0  0  0  0 
 18  6  1  0  0  0  0 
M  END 
>  <HBA> 
1 
 
>  <HBD> 
0 
 
>  <TPSA> 
9.23 
 
>  <cid> 
15119 
 
>  <dipole> 
1.24 
 
>  <excitation_energy_1> 
6.358 
 
>  <excitation_energy_2> 
6.5 
 
>  <excitation_energy_3> 
6.69 
 
>  <excitation_energy_4> 
6.804 
 
>  <homo_energy> 
-6.664 
 
>  <homo_lumo_gap> 
7.464 
 
>  <logP> 
1.599 
 
>  <lumo_energy> 
0.8 
 
>  <melting_point> 
-56.11 
 
>  <molecular_refractivity> 
31.57 
 
>  <oscillator_strength_1> 
0.0004 
 
>  <oscillator_strength_2> 
0.0773 
 
>  <oscillator_strength_3> 
0.0439 
 
>  <oscillator_strength_4> 
0.0308 
 
>  <open_babel_can_smiles> 
CCCOCC=C 
 
>  <mulliken_charges> 
19 
1   -0.319917 
2   -0.452362 
3   -0.098476 
4   -0.267151 
5   -0.027139 
6   0.004604 
7   -0.477194 
8   0.134128 
9   0.158996 
10   0.150416 
11   0.144519 
12   0.144593 
13   0.125989 
14   0.147748 
15   0.147805 
16   0.126728 
17   0.126466 
18   0.115104 
19   0.115143 
 
>  <lowdin_charges> 
19 
1   -0.332146 
2   -0.443107 
3   -0.162014 
4   -0.278341 
5   -0.124264 
6   -0.127837 
7   -0.266185 
8   0.157201 
9   0.165917 
10   0.152539 
11   0.147014 
12   0.148439 
13   0.150972 
14   0.150171 
15   0.14881 
16   0.132126 
17   0.13341 
18   0.124511 
19   0.122786 
 
$$$$ 
 
