PCCDB-ID:  26097 
public computational chemistry database (PCCDB) project, http://pccdb.org 
 
 19 19  0  0  0  0  0  0  0  0999 V2000 
   -0.5153    1.0321    0.7537 C   0  0  0  0  0  0  0  0  0  0  0  0 
    0.8083   -0.4941   -0.5372 C   0  0  0  0  0  0  0  0  0  0  0  0 
   -1.4752    0.0267    0.8541 C   0  0  0  0  0  0  0  0  0  0  0  0 
   -0.2185   -1.4264   -0.3814 C   0  0  0  0  0  0  0  0  0  0  0  0 
    4.0052    2.5153   -0.3833 C   0  0  0  0  0  0  0  0  0  0  0  0 
    0.6639    0.7669    0.0514 C   0  0  0  0  0  0  0  0  0  0  0  0 
    1.6937    1.8570   -0.0474 C   0  0  0  0  0  0  0  0  0  0  0  0 
   -1.3424   -1.1882    0.3042 N   0  0  0  0  0  0  0  0  0  0  0  0 
    2.9693    1.4814   -0.3754 N   0  0  0  0  0  0  0  0  0  0  0  0 
    4.1944    3.1332    0.8622 O   0  0  0  0  0  0  0  0  0  0  0  0 
    1.4014    3.0378    0.1456 O   0  0  0  0  0  0  0  0  0  0  0  0 
   -0.6633    2.0071    1.2048 H   0  0  0  0  0  0  0  0  0  0  0  0 
    1.6809   -0.7465   -1.1323 H   0  0  0  0  0  0  0  0  0  0  0  0 
   -2.3985    0.2036    1.4027 H   0  0  0  0  0  0  0  0  0  0  0  0 
   -0.1338   -2.4127   -0.8345 H   0  0  0  0  0  0  0  0  0  0  0  0 
    3.7271    3.2414   -1.1557 H   0  0  0  0  0  0  0  0  0  0  0  0 
    4.9479    2.0389   -0.6587 H   0  0  0  0  0  0  0  0  0  0  0  0 
    3.2491    0.5311   -0.1705 H   0  0  0  0  0  0  0  0  0  0  0  0 
    3.3721    3.6291    1.0253 H   0  0  0  0  0  0  0  0  0  0  0  0 
  1  3  1  0  0  0  0 
  1 12  1  0  0  0  0 
  2  4  2  0  0  0  0 
  2  6  1  0  0  0  0 
  3 14  1  0  0  0  0 
  4  8  1  0  0  0  0 
  5  9  1  0  0  0  0 
  5 10  1  0  0  0  0 
  6  1  2  0  0  0  0 
  7  6  1  0  0  0  0 
  7 11  2  0  0  0  0 
  8  3  2  0  0  0  0 
  9 18  1  0  0  0  0 
  9  7  1  0  0  0  0 
 10 19  1  0  0  0  0 
 13  2  1  0  0  0  0 
 15  4  1  0  0  0  0 
 16  5  1  0  0  0  0 
 17  5  1  0  0  0  0 
M  END 
>  <HBA> 
4 
 
>  <HBD> 
2 
 
>  <TPSA> 
62.22 
 
>  <cid> 
26097 
 
>  <dipole> 
2.29 
 
>  <excitation_energy_1> 
4.219 
 
>  <excitation_energy_2> 
4.502 
 
>  <excitation_energy_3> 
4.931 
 
>  <excitation_energy_4> 
5.135 
 
>  <homo_energy> 
-7.192 
 
>  <homo_lumo_gap> 
5.415 
 
>  <logP> 
0.152 
 
>  <lumo_energy> 
-1.777 
 
>  <melting_point> 
99.51 
 
>  <molecular_refractivity> 
38.4 
 
>  <oscillator_strength_1> 
0.0025 
 
>  <oscillator_strength_2> 
0.0027 
 
>  <oscillator_strength_3> 
0.0372 
 
>  <oscillator_strength_4> 
0.0001 
 
>  <open_babel_can_smiles> 
OCNC(=O)c1ccncc1 
 
>  <mulliken_charges> 
19 
1   -0.161058 
2   -0.189454 
3   0.035731 
4   0.039056 
5   0.079533 
6   0.092437 
7   0.565527 
8   -0.397712 
9   -0.604107 
10   -0.608093 
11   -0.530175 
12   0.17062 
13   0.140988 
14   0.151752 
15   0.148999 
16   0.162484 
17   0.153921 
18   0.334186 
19   0.415364 
 
>  <lowdin_charges> 
19 
1   -0.148953 
2   -0.17796 
3   -0.084916 
4   -0.086171 
5   -0.075706 
6   -0.017056 
7   0.167583 
8   -0.135915 
9   -0.285625 
10   -0.457788 
11   -0.309259 
12   0.182583 
13   0.165167 
14   0.162223 
15   0.160159 
16   0.149553 
17   0.154944 
18   0.284829 
19   0.352307 
 
$$$$ 
 
