PCCDB-ID:  29060 
public computational chemistry database (PCCDB) project, http://pccdb.org 
 
 25 24  0  0  0  0  0  0  0  0999 V2000 
    1.2591    0.1459    3.1209 C   0  0  0  0  0  0  0  0  0  0  0  0 
    2.4122    0.1224    2.1124 C   0  0  0  0  0  0  0  0  0  0  0  0 
    3.4472   -0.9722    2.4028 C   0  0  0  0  0  0  0  0  0  0  0  0 
    4.6060   -1.0009    1.3985 C   0  0  0  0  0  0  0  0  0  0  0  0 
    5.6432   -2.0998    1.7013 C   0  0  0  0  0  0  0  0  0  0  0  0 
    6.7490   -2.1619    0.6838 C   0  0  0  0  0  0  0  0  0  0  0  0 
    8.0439   -1.9582    0.9376 C   0  0  0  0  0  0  0  0  0  0  0  0 
    9.1454   -2.0269   -0.0902 C   0  0  0  0  0  0  0  0  0  0  0  0 
    8.7432   -2.5460   -1.3488 O   0  0  0  0  0  0  0  0  0  0  0  0 
    0.5381    0.9374    2.8869 H   0  0  0  0  0  0  0  0  0  0  0  0 
    1.6272    0.3207    4.1395 H   0  0  0  0  0  0  0  0  0  0  0  0 
    0.7169   -0.8078    3.1259 H   0  0  0  0  0  0  0  0  0  0  0  0 
    2.9128    1.1010    2.1057 H   0  0  0  0  0  0  0  0  0  0  0  0 
    2.0099   -0.0197    1.0992 H   0  0  0  0  0  0  0  0  0  0  0  0 
    2.9465   -1.9521    2.4087 H   0  0  0  0  0  0  0  0  0  0  0  0 
    3.8486   -0.8313    3.4176 H   0  0  0  0  0  0  0  0  0  0  0  0 
    5.1114   -0.0254    1.3877 H   0  0  0  0  0  0  0  0  0  0  0  0 
    4.2068   -1.1489    0.3844 H   0  0  0  0  0  0  0  0  0  0  0  0 
    5.1212   -3.0692    1.7357 H   0  0  0  0  0  0  0  0  0  0  0  0 
    6.0655   -1.9411    2.7027 H   0  0  0  0  0  0  0  0  0  0  0  0 
    6.4494   -2.3679   -0.3448 H   0  0  0  0  0  0  0  0  0  0  0  0 
    8.3683   -1.7290    1.9545 H   0  0  0  0  0  0  0  0  0  0  0  0 
    9.9940   -2.6001    0.3239 H   0  0  0  0  0  0  0  0  0  0  0  0 
    9.5324   -1.0208   -0.2999 H   0  0  0  0  0  0  0  0  0  0  0  0 
    8.3912   -3.4359   -1.1865 H   0  0  0  0  0  0  0  0  0  0  0  0 
  1 12  1  0  0  0  0 
  1 11  1  0  0  0  0 
  2  3  1  0  0  0  0 
  2  1  1  0  0  0  0 
  3 15  1  0  0  0  0 
  3 16  1  0  0  0  0 
  4  5  1  0  0  0  0 
  4  3  1  0  0  0  0 
  5 19  1  0  0  0  0 
  5 20  1  0  0  0  0 
  6  7  2  0  0  0  0 
  6  5  1  0  0  0  0 
  7 22  1  0  0  0  0 
  8 23  1  0  0  0  0 
  8  7  1  0  0  0  0 
  9 25  1  0  0  0  0 
  9  8  1  0  0  0  0 
 10  1  1  0  0  0  0 
 13  2  1  0  0  0  0 
 14  2  1  0  0  0  0 
 17  4  1  0  0  0  0 
 18  4  1  0  0  0  0 
 21  6  1  0  0  0  0 
 24  8  1  0  0  0  0 
M  END 
>  <HBA> 
1 
 
>  <HBD> 
1 
 
>  <TPSA> 
20.23 
 
>  <cid> 
29060 
 
>  <dipole> 
1.59 
 
>  <excitation_energy_1> 
5.975 
 
>  <excitation_energy_2> 
6.412 
 
>  <excitation_energy_3> 
6.628 
 
>  <excitation_energy_4> 
6.704 
 
>  <homo_energy> 
-6.542 
 
>  <homo_lumo_gap> 
7.249 
 
>  <logP> 
2.115 
 
>  <lumo_energy> 
0.708 
 
>  <melting_point> 
0.52 
 
>  <molecular_refractivity> 
41.26 
 
>  <oscillator_strength_1> 
0.0375 
 
>  <oscillator_strength_2> 
0.001 
 
>  <oscillator_strength_3> 
0.0741 
 
>  <oscillator_strength_4> 
0.1494 
 
>  <open_babel_can_smiles> 
CCCCC/C=C/CO 
 
>  <mulliken_charges> 
25 
1   -0.441464 
2   -0.247117 
3   -0.246063 
4   -0.252854 
5   -0.302362 
6   -0.087224 
7   -0.155097 
8   -0.058102 
9   -0.607716 
10   0.142137 
11   0.14113 
12   0.141043 
13   0.13147 
14   0.13091 
15   0.126292 
16   0.126967 
17   0.136886 
18   0.130916 
19   0.13642 
20   0.134384 
21   0.126746 
22   0.11875 
23   0.126507 
24   0.160205 
25   0.387237 
 
>  <lowdin_charges> 
25 
1   -0.444124 
2   -0.270817 
3   -0.273749 
4   -0.271805 
5   -0.268202 
6   -0.167381 
7   -0.200014 
8   -0.131802 
9   -0.459351 
10   0.150178 
11   0.145246 
12   0.14595 
13   0.139098 
14   0.138356 
15   0.136611 
16   0.136549 
17   0.142282 
18   0.138793 
19   0.144841 
20   0.142878 
21   0.150017 
22   0.148913 
23   0.131818 
24   0.154845 
25   0.340869 
 
$$$$ 
 
