PCCDB-ID:  41715 
public computational chemistry database (PCCDB) project, http://pccdb.org 
 
 34 33  0  0  1  0  0  0  0  0999 V2000 
    1.1232    0.2942    0.7066 C   0  0  0  0  0  0  0  0  0  0  0  0 
    9.0820   -2.5102   -2.3783 C   0  0  0  0  0  0  0  0  0  0  0  0 
    7.3991    1.7015   -1.8885 C   0  0  0  0  0  0  0  0  0  0  0  0 
    2.6477    0.2258    0.5683 C   0  0  0  0  0  0  0  0  0  0  0  0 
    8.6629   -1.0910   -2.7785 C   0  0  0  0  0  0  0  0  0  0  0  0 
    3.1404    0.4920   -0.8605 C   0  0  0  0  0  0  0  0  0  0  0  0 
    4.6676    0.4190   -1.0021 C   0  0  0  0  0  0  0  0  0  0  0  0 
    7.2071   -0.7935   -2.3871 C   0  0  0  0  0  0  0  0  0  0  0  0 
    5.1394    0.6703   -2.4416 C   0  0  0  0  0  0  0  0  0  0  0  0 
    6.6652    0.6201   -2.7112 C   0  0  1  0  0  0  0  0  0  0  0  0 
    6.8133    0.8416   -4.1683 N   0  0  0  0  0  0  0  0  0  0  0  0 
    0.8057    0.0934    1.7362 H   0  0  0  0  0  0  0  0  0  0  0  0 
    0.6331   -0.4417    0.0573 H   0  0  0  0  0  0  0  0  0  0  0  0 
    0.7440    1.2849    0.4274 H   0  0  0  0  0  0  0  0  0  0  0  0 
   10.1198   -2.7198   -2.6623 H   0  0  0  0  0  0  0  0  0  0  0  0 
    8.4457   -3.2603   -2.8635 H   0  0  0  0  0  0  0  0  0  0  0  0 
    8.9974   -2.6567   -1.2942 H   0  0  0  0  0  0  0  0  0  0  0  0 
    7.3520    1.5118   -0.8095 H   0  0  0  0  0  0  0  0  0  0  0  0 
    6.9587    2.6897   -2.0734 H   0  0  0  0  0  0  0  0  0  0  0  0 
    8.4582    1.7554   -2.1671 H   0  0  0  0  0  0  0  0  0  0  0  0 
    3.0013   -0.7635    0.8913 H   0  0  0  0  0  0  0  0  0  0  0  0 
    3.1094    0.9515    1.2532 H   0  0  0  0  0  0  0  0  0  0  0  0 
    8.7868   -0.9766   -3.8633 H   0  0  0  0  0  0  0  0  0  0  0  0 
    9.3434   -0.3702   -2.3050 H   0  0  0  0  0  0  0  0  0  0  0  0 
    2.7889    1.4817   -1.1880 H   0  0  0  0  0  0  0  0  0  0  0  0 
    2.6772   -0.2342   -1.5449 H   0  0  0  0  0  0  0  0  0  0  0  0 
    5.0067   -0.5693   -0.6657 H   0  0  0  0  0  0  0  0  0  0  0  0 
    5.1210    1.1495   -0.3179 H   0  0  0  0  0  0  0  0  0  0  0  0 
    7.0985   -0.9709   -1.3087 H   0  0  0  0  0  0  0  0  0  0  0  0 
    6.5593   -1.5207   -2.8949 H   0  0  0  0  0  0  0  0  0  0  0  0 
    4.7732    1.6589   -2.7611 H   0  0  0  0  0  0  0  0  0  0  0  0 
    4.6666   -0.0588   -3.1126 H   0  0  0  0  0  0  0  0  0  0  0  0 
    7.8001    0.9587   -4.3981 H   0  0  0  0  0  0  0  0  0  0  0  0 
    6.3713    1.7285   -4.4135 H   0  0  0  0  0  0  0  0  0  0  0  0 
  1 12  1  0  0  0  0 
  2 17  1  0  0  0  0 
  3 18  1  0  0  0  0 
  4  1  1  0  0  0  0 
  4 21  1  0  0  0  0 
  4 22  1  0  0  0  0 
  5  8  1  0  0  0  0 
  5  2  1  0  0  0  0 
  5 24  1  0  0  0  0 
  6  4  1  0  0  0  0 
  7  6  1  0  0  0  0 
  7 27  1  0  0  0  0 
  7 28  1  0  0  0  0 
  8 29  1  0  0  0  0 
  9  7  1  0  0  0  0 
 10 11  1  6  0  0  0 
 10  9  1  0  0  0  0 
 10  8  1  0  0  0  0 
 10  3  1  0  0  0  0 
 13  1  1  0  0  0  0 
 14  1  1  0  0  0  0 
 15  2  1  0  0  0  0 
 16  2  1  0  0  0  0 
 19  3  1  0  0  0  0 
 20  3  1  0  0  0  0 
 23  5  1  0  0  0  0 
 25  6  1  0  0  0  0 
 26  6  1  0  0  0  0 
 30  8  1  0  0  0  0 
 31  9  1  0  0  0  0 
 32  9  1  0  0  0  0 
 33 11  1  0  0  0  0 
 34 11  1  0  0  0  0 
M  END 
>  <HBA> 
1 
 
>  <HBD> 
1 
 
>  <TPSA> 
26.02 
 
>  <cid> 
41715 
 
>  <dipole> 
1.21 
 
>  <excitation_energy_1> 
5.701 
 
>  <excitation_energy_2> 
6.329 
 
>  <excitation_energy_3> 
6.409 
 
>  <excitation_energy_4> 
6.612 
 
>  <homo_energy> 
-6.223 
 
>  <homo_lumo_gap> 
8.283 
 
>  <logP> 
3.784 
 
>  <lumo_energy> 
2.06 
 
>  <melting_point> 
36.05 
 
>  <molecular_refractivity> 
52.93 
 
>  <oscillator_strength_1> 
0.0389 
 
>  <oscillator_strength_2> 
0.0021 
 
>  <oscillator_strength_3> 
0.0028 
 
>  <oscillator_strength_4> 
0.0019 
 
>  <open_babel_can_smiles> 
CCCCC[C@@](CCC)(N)C 
 
>  <mulliken_charges> 
34 
1   -0.441106 
2   -0.441431 
3   -0.458592 
4   -0.247523 
5   -0.269617 
6   -0.246568 
7   -0.265581 
8   -0.235636 
9   -0.257411 
10   0.187258 
11   -0.723381 
12   0.141043 
13   0.141567 
14   0.140858 
15   0.140222 
16   0.14449 
17   0.140174 
18   0.142178 
19   0.131248 
20   0.136158 
21   0.13002 
22   0.128989 
23   0.13869 
24   0.12983 
25   0.12579 
26   0.12855 
27   0.134836 
28   0.129848 
29   0.125515 
30   0.135166 
31   0.112801 
32   0.14383 
33   0.290975 
34   0.28681 
 
>  <lowdin_charges> 
34 
1   -0.444576 
2   -0.440685 
3   -0.457859 
4   -0.273139 
5   -0.277986 
6   -0.274294 
7   -0.28005 
8   -0.277167 
9   -0.27781 
10   0.060413 
11   -0.547936 
12   0.148012 
13   0.147582 
14   0.145652 
15   0.147246 
16   0.148887 
17   0.143437 
18   0.146564 
19   0.143659 
20   0.143724 
21   0.13824 
22   0.139326 
23   0.140587 
24   0.138781 
25   0.136269 
26   0.139393 
27   0.140757 
28   0.140076 
29   0.137333 
30   0.147832 
31   0.132868 
32   0.149945 
33   0.246824 
34   0.248095 
 
$$$$ 
 
