PCCDB-ID:  6808 
public computational chemistry database (PCCDB) project, http://pccdb.org 
 
 20 21  0  0  1  0  0  0  0  0999 V2000 
   -1.4649    0.1421    0.4710 C   0  0  0  0  0  0  0  0  0  0  0  0 
   -1.0786   -0.9271   -0.2308 C   0  0  0  0  0  0  0  0  0  0  0  0 
   -0.4418    1.1328    0.9715 C   0  0  0  0  0  0  0  0  0  0  0  0 
    0.3788   -1.1457   -0.5534 C   0  0  0  0  0  0  0  0  0  0  0  0 
    0.6671    1.4084   -0.0831 C   0  0  1  0  0  0  0  0  0  0  0  0 
    1.0743    0.1806   -0.9263 C   0  0  2  0  0  0  0  0  0  0  0  0 
    0.2121    2.3589   -1.1841 C   0  0  0  0  0  0  0  0  0  0  0  0 
    0.6950    0.6095   -2.3693 C   0  0  0  0  0  0  0  0  0  0  0  0 
    0.2319    1.9475   -2.4004 N   0  0  0  0  0  0  0  0  0  0  0  0 
   -0.1977    3.6007   -0.8988 O   0  0  0  0  0  0  0  0  0  0  0  0 
    0.7831   -0.1097   -3.3370 O   0  0  0  0  0  0  0  0  0  0  0  0 
   -2.5117    0.3098    0.7122 H   0  0  0  0  0  0  0  0  0  0  0  0 
   -1.8068   -1.6547   -0.5809 H   0  0  0  0  0  0  0  0  0  0  0  0 
    0.0440    0.7447    1.8785 H   0  0  0  0  0  0  0  0  0  0  0  0 
   -0.9243    2.0711    1.2766 H   0  0  0  0  0  0  0  0  0  0  0  0 
    0.5027   -1.8381   -1.3916 H   0  0  0  0  0  0  0  0  0  0  0  0 
    0.8900   -1.5968    0.3104 H   0  0  0  0  0  0  0  0  0  0  0  0 
    1.5306    1.8591    0.4255 H   0  0  0  0  0  0  0  0  0  0  0  0 
    2.1603    0.0343   -0.9079 H   0  0  0  0  0  0  0  0  0  0  0  0 
   -0.1373    3.7515    0.0588 H   0  0  0  0  0  0  0  0  0  0  0  0 
  1 12  1  0  0  0  0 
  1  3  1  0  0  0  0 
  2  1  2  0  0  0  0 
  3 15  1  0  0  0  0 
  3 14  1  0  0  0  0 
  4  2  1  0  0  0  0 
  4 17  1  0  0  0  0 
  5 18  1  1  0  0  0 
  5  3  1  0  0  0  0 
  6 19  1  1  0  0  0 
  6  4  1  0  0  0  0 
  6  5  1  0  0  0  0 
  7 10  1  0  0  0  0 
  7  5  1  0  0  0  0 
  8  6  1  0  0  0  0 
  9  8  1  0  0  0  0 
  9  7  2  0  0  0  0 
 10 20  1  0  0  0  0 
 11  8  2  0  0  0  0 
 13  2  1  0  0  0  0 
 16  4  1  0  0  0  0 
M  END 
>  <HBA> 
3 
 
>  <HBD> 
1 
 
>  <TPSA> 
46.17 
 
>  <cid> 
6808 
 
>  <dipole> 
6.66 
 
>  <excitation_energy_1> 
4.302 
 
>  <excitation_energy_2> 
5.077 
 
>  <excitation_energy_3> 
5.507 
 
>  <excitation_energy_4> 
5.547 
 
>  <homo_energy> 
-6.653 
 
>  <homo_lumo_gap> 
5.777 
 
>  <logP> 
0.554 
 
>  <lumo_energy> 
-0.876 
 
>  <melting_point> 
97.02 
 
>  <molecular_refractivity> 
42.98 
 
>  <oscillator_strength_1> 
0.0006 
 
>  <oscillator_strength_2> 
0.001 
 
>  <oscillator_strength_3> 
0.0043 
 
>  <oscillator_strength_4> 
0.0005 
 
>  <open_babel_can_smiles> 
O=C1N=C([C@@H]2[C@H]1CC=CC2)O 
 
>  <mulliken_charges> 
20 
1   -0.111118 
2   -0.1034 
3   -0.312357 
4   -0.312255 
5   -0.212199 
6   -0.202569 
7   0.532853 
8   0.556697 
9   -0.454303 
10   -0.567298 
11   -0.466541 
12   0.137545 
13   0.141878 
14   0.167295 
15   0.129218 
16   0.180182 
17   0.151085 
18   0.157374 
19   0.167284 
20   0.420629 
 
>  <lowdin_charges> 
20 
1   -0.180532 
2   -0.160677 
3   -0.275712 
4   -0.274851 
5   -0.167715 
6   -0.162542 
7   0.149395 
8   0.162219 
9   -0.187933 
10   -0.312609 
11   -0.232935 
12   0.158579 
13   0.163677 
14   0.161474 
15   0.142889 
16   0.172249 
17   0.154852 
18   0.160487 
19   0.166709 
20   0.362977 
 
$$$$ 
 
