PCCDB-ID:  34240 
public computational chemistry database (PCCDB) project, http://pccdb.org 
 
 21 21  0  0  0  0  0  0  0  0999 V2000 
    3.0865   -1.3276   -0.0733 C   0  0  0  0  0  0  0  0  0  0  0  0 
    3.9809    4.9891   -4.1424 C   0  0  0  0  0  0  0  0  0  0  0  0 
    4.2294    3.6614   -4.0739 C   0  0  0  0  0  0  0  0  0  0  0  0 
    3.1066    3.1322   -1.8691 C   0  0  0  0  0  0  0  0  0  0  0  0 
    4.1964    1.3887   -3.1224 C   0  0  0  0  0  0  0  0  0  0  0  0 
    2.7612    2.2166   -0.8929 C   0  0  0  0  0  0  0  0  0  0  0  0 
    3.8559    0.4527   -2.1477 C   0  0  0  0  0  0  0  0  0  0  0  0 
    4.4205    5.7862   -5.2367 C   0  0  0  0  0  0  0  0  0  0  0  0 
    3.8365    2.7416   -3.0139 C   0  0  0  0  0  0  0  0  0  0  0  0 
    3.1321    0.8650   -1.0222 C   0  0  0  0  0  0  0  0  0  0  0  0 
    4.7729    6.4537   -6.1247 N   0  0  0  0  0  0  0  0  0  0  0  0 
    2.7421    0.0503   -0.0079 O   0  0  0  0  0  0  0  0  0  0  0  0 
    2.6772   -1.7794    0.8315 H   0  0  0  0  0  0  0  0  0  0  0  0 
    4.1748   -1.4681   -0.0903 H   0  0  0  0  0  0  0  0  0  0  0  0 
    2.6434   -1.8100   -0.9538 H   0  0  0  0  0  0  0  0  0  0  0  0 
    3.4330    5.5141   -3.3646 H   0  0  0  0  0  0  0  0  0  0  0  0 
    4.7859    3.2138   -4.8956 H   0  0  0  0  0  0  0  0  0  0  0  0 
    2.8057    4.1679   -1.7428 H   0  0  0  0  0  0  0  0  0  0  0  0 
    4.7589    1.0592   -3.9927 H   0  0  0  0  0  0  0  0  0  0  0  0 
    2.2002    2.5154   -0.0132 H   0  0  0  0  0  0  0  0  0  0  0  0 
    4.1559   -0.5811   -2.2727 H   0  0  0  0  0  0  0  0  0  0  0  0 
  1 12  1  0  0  0  0 
  1 13  1  0  0  0  0 
  2  3  2  0  0  0  0 
  2 16  1  0  0  0  0 
  3  9  1  0  0  0  0 
  4 18  1  0  0  0  0 
  4  6  2  0  0  0  0 
  5  9  2  0  0  0  0 
  5  7  1  0  0  0  0 
  6 20  1  0  0  0  0 
  7 10  2  0  0  0  0 
  8  2  1  0  0  0  0 
  9  4  1  0  0  0  0 
 10  6  1  0  0  0  0 
 10 12  1  0  0  0  0 
 11  8  3  0  0  0  0 
 14  1  1  0  0  0  0 
 15  1  1  0  0  0  0 
 17  3  1  0  0  0  0 
 19  5  1  0  0  0  0 
 21  7  1  0  0  0  0 
M  END 
>  <HBA> 
2 
 
>  <HBD> 
0 
 
>  <TPSA> 
33.02 
 
>  <cid> 
34240 
 
>  <dipole> 
6.87 
 
>  <excitation_energy_1> 
4.117 
 
>  <excitation_energy_2> 
4.551 
 
>  <excitation_energy_3> 
5.243 
 
>  <excitation_energy_4> 
5.422 
 
>  <homo_energy> 
-6.052 
 
>  <homo_lumo_gap> 
4.297 
 
>  <logP> 
2.232 
 
>  <lumo_energy> 
-1.755 
 
>  <melting_point> 
66.18 
 
>  <molecular_refractivity> 
47.58 
 
>  <oscillator_strength_1> 
0.763 
 
>  <oscillator_strength_2> 
0.0355 
 
>  <oscillator_strength_3> 
0.1074 
 
>  <oscillator_strength_4> 
0.0041 
 
>  <open_babel_can_smiles> 
COc1ccc(cc1)/C=C/C#N 
 
>  <mulliken_charges> 
21 
1   -0.220787 
2   -0.167136 
3   -0.142969 
4   -0.177361 
5   -0.200591 
6   -0.172122 
7   -0.195038 
8   0.30671 
9   0.171565 
10   0.384022 
11   -0.484846 
12   -0.499321 
13   0.177717 
14   0.158612 
15   0.158594 
16   0.17375 
17   0.157213 
18   0.139485 
19   0.141961 
20   0.149428 
21   0.141113 
 
>  <lowdin_charges> 
21 
1   -0.275237 
2   -0.19512 
3   -0.101235 
4   -0.134867 
5   -0.136475 
6   -0.173875 
7   -0.210829 
8   -0.015102 
9   -0.030064 
10   0.111782 
11   -0.131749 
12   -0.187302 
13   0.167899 
14   0.14722 
15   0.149993 
16   0.18033 
17   0.171495 
18   0.161598 
19   0.163353 
20   0.172362 
21   0.165822 
 
$$$$ 
 
