PCCDB-ID:  70288 
public computational chemistry database (PCCDB) project, http://pccdb.org 
 
 20 21  0  0  0  0  0  0  0  0999 V2000 
   -1.5318   -0.0734   -0.0653 C   0  0  0  0  0  0  0  0  0  0  0  0 
   -0.9280    1.1452   -0.3808 C   0  0  0  0  0  0  0  0  0  0  0  0 
   -0.7394   -1.1807    0.2433 C   0  0  0  0  0  0  0  0  0  0  0  0 
    0.4628    1.2561   -0.3855 C   0  0  0  0  0  0  0  0  0  0  0  0 
    0.6512   -1.0686    0.2381 C   0  0  0  0  0  0  0  0  0  0  0  0 
    3.5842   -0.1086    1.1363 C   0  0  0  0  0  0  0  0  0  0  0  0 
    3.4688    1.3308    0.7408 C   0  0  0  0  0  0  0  0  0  0  0  0 
    3.3750   -0.0401   -1.3825 C   0  0  0  0  0  0  0  0  0  0  0  0 
    1.2636    0.1515   -0.0717 C   0  0  0  0  0  0  0  0  0  0  0  0 
    2.7706    0.2650   -0.1009 C   0  0  0  0  0  0  0  0  0  0  0  0 
    3.8564   -0.2866   -2.4119 N   0  0  0  0  0  0  0  0  0  0  0  0 
   -2.6149   -0.1598   -0.0601 H   0  0  0  0  0  0  0  0  0  0  0  0 
   -1.5390    2.0103   -0.6237 H   0  0  0  0  0  0  0  0  0  0  0  0 
   -1.2033   -2.1324    0.4878 H   0  0  0  0  0  0  0  0  0  0  0  0 
    0.9328    2.2038   -0.6350 H   0  0  0  0  0  0  0  0  0  0  0  0 
    1.2682   -1.9315    0.4752 H   0  0  0  0  0  0  0  0  0  0  0  0 
    3.0141   -0.4551    1.9930 H   0  0  0  0  0  0  0  0  0  0  0  0 
    4.5311   -0.6156    0.9798 H   0  0  0  0  0  0  0  0  0  0  0  0 
    4.3357    1.8220    0.3104 H   0  0  0  0  0  0  0  0  0  0  0  0 
    2.8193    1.9751    1.3256 H   0  0  0  0  0  0  0  0  0  0  0  0 
  1 12  1  0  0  0  0 
  1  3  2  0  0  0  0 
  2  1  1  0  0  0  0 
  3 14  1  0  0  0  0 
  4  2  2  0  0  0  0 
  4  9  1  0  0  0  0 
  5  3  1  0  0  0  0 
  5 16  1  0  0  0  0 
  6 17  1  0  0  0  0 
  7  6  1  0  0  0  0 
  7 20  1  0  0  0  0 
  8 10  1  0  0  0  0 
  9  5  2  0  0  0  0 
 10  9  1  0  0  0  0 
 10  7  1  0  0  0  0 
 10  6  1  0  0  0  0 
 11  8  3  0  0  0  0 
 13  2  1  0  0  0  0 
 15  4  1  0  0  0  0 
 18  6  1  0  0  0  0 
 19  7  1  0  0  0  0 
M  END 
>  <HBA> 
1 
 
>  <HBD> 
0 
 
>  <TPSA> 
23.79 
 
>  <cid> 
70288 
 
>  <dipole> 
4.29 
 
>  <excitation_energy_1> 
5.285 
 
>  <excitation_energy_2> 
5.862 
 
>  <excitation_energy_3> 
6.185 
 
>  <excitation_energy_4> 
6.408 
 
>  <homo_energy> 
-6.991 
 
>  <homo_lumo_gap> 
6.468 
 
>  <logP> 
2.242 
 
>  <lumo_energy> 
-0.522 
 
>  <melting_point> 
68.58 
 
>  <molecular_refractivity> 
43.35 
 
>  <oscillator_strength_1> 
0.001 
 
>  <oscillator_strength_2> 
0.0539 
 
>  <oscillator_strength_3> 
0.0004 
 
>  <oscillator_strength_4> 
0.0024 
 
>  <open_babel_can_smiles> 
N#CC1(CC1)c1ccccc1 
 
>  <mulliken_charges> 
20 
1   -0.123562 
2   -0.130458 
3   -0.130365 
4   -0.161946 
5   -0.161716 
6   -0.306806 
7   -0.30698 
8   0.344752 
9   0.123606 
10   -0.06328 
11   -0.481606 
12   0.136091 
13   0.137075 
14   0.137098 
15   0.138182 
16   0.138286 
17   0.175087 
18   0.180793 
19   0.180746 
20   0.175001 
 
>  <lowdin_charges> 
20 
1   -0.147903 
2   -0.1528 
3   -0.151754 
4   -0.154913 
5   -0.155766 
6   -0.287409 
7   -0.28938 
8   -0.011533 
9   -0.001612 
10   -0.015973 
11   -0.136131 
12   0.158992 
13   0.162174 
14   0.161437 
15   0.162508 
16   0.163298 
17   0.172806 
18   0.174826 
19   0.175631 
20   0.173503 
 
$$$$ 
 
