PCCDB-ID:  20340 
public computational chemistry database (PCCDB) project, http://pccdb.org 
 
 28 28  0  0  1  0  0  0  0  0999 V2000 
    3.4238    0.4583   -0.8980 C   0  0  0  0  0  0  0  0  0  0  0  0 
    1.7801   -1.3535   -0.3136 C   0  0  0  0  0  0  0  0  0  0  0  0 
    1.7578   -0.2683    2.6202 C   0  0  0  0  0  0  0  0  0  0  0  0 
    5.0155    3.2222    2.2393 C   0  0  0  0  0  0  0  0  0  0  0  0 
    2.3608    0.0043    0.1159 C   0  0  0  0  0  0  0  0  0  0  0  0 
    4.0811   -0.8450    1.8215 C   0  0  0  0  0  0  0  0  0  0  0  0 
    3.2674    1.5365    1.8666 C   0  0  0  0  0  0  0  0  0  0  0  0 
    5.6418    0.8566    2.0188 C   0  0  0  0  0  0  0  0  0  0  0  0 
    2.8859    0.0654    1.6106 C   0  0  2  0  0  0  0  0  0  0  0  0 
    5.3016   -0.4942    1.9704 N   0  0  0  0  0  0  0  0  0  0  0  0 
    4.6026    1.8254    2.0575 N   0  0  0  0  0  0  0  0  0  0  0  0 
    3.8524   -2.1727    1.8492 O   0  0  0  0  0  0  0  0  0  0  0  0 
    2.3993    2.3971    1.8676 O   0  0  0  0  0  0  0  0  0  0  0  0 
    6.7960    1.2289    2.0644 O   0  0  0  0  0  0  0  0  0  0  0  0 
    2.9987    0.4553   -1.9074 H   0  0  0  0  0  0  0  0  0  0  0  0 
    4.2924   -0.2110   -0.9042 H   0  0  0  0  0  0  0  0  0  0  0  0 
    3.7782    1.4741   -0.6977 H   0  0  0  0  0  0  0  0  0  0  0  0 
    1.3200   -1.2480   -1.3019 H   0  0  0  0  0  0  0  0  0  0  0  0 
    0.9947   -1.7175    0.3584 H   0  0  0  0  0  0  0  0  0  0  0  0 
    2.5551   -2.1233   -0.4073 H   0  0  0  0  0  0  0  0  0  0  0  0 
    1.3264   -1.2626    2.4687 H   0  0  0  0  0  0  0  0  0  0  0  0 
    0.9599    0.4688    2.5098 H   0  0  0  0  0  0  0  0  0  0  0  0 
    2.1298   -0.2195    3.6488 H   0  0  0  0  0  0  0  0  0  0  0  0 
    4.1149    3.8247    2.3381 H   0  0  0  0  0  0  0  0  0  0  0  0 
    5.6028    3.5540    1.3792 H   0  0  0  0  0  0  0  0  0  0  0  0 
    5.6376    3.3033    3.1324 H   0  0  0  0  0  0  0  0  0  0  0  0 
    1.5463    0.7383    0.1057 H   0  0  0  0  0  0  0  0  0  0  0  0 
    2.9064   -2.3489    1.7306 H   0  0  0  0  0  0  0  0  0  0  0  0 
  1 17  1  0  0  0  0 
  1  5  1  0  0  0  0 
  2  5  1  0  0  0  0 
  2 19  1  0  0  0  0 
  3 23  1  0  0  0  0 
  4 24  1  0  0  0  0 
  4 26  1  0  0  0  0 
  6 12  1  0  0  0  0 
  6 10  2  0  0  0  0 
  7 13  2  0  0  0  0 
  7 11  1  0  0  0  0 
  8 11  1  0  0  0  0 
  8 14  2  0  0  0  0 
  9  5  1  6  0  0  0 
  9  6  1  0  0  0  0 
  9  7  1  0  0  0  0 
  9  3  1  0  0  0  0 
 10  8  1  0  0  0  0 
 11  4  1  0  0  0  0 
 15  1  1  0  0  0  0 
 16  1  1  0  0  0  0 
 18  2  1  0  0  0  0 
 20  2  1  0  0  0  0 
 21  3  1  0  0  0  0 
 22  3  1  0  0  0  0 
 25  4  1  0  0  0  0 
 27  5  1  0  0  0  0 
 28 12  1  0  0  0  0 
M  END 
>  <HBA> 
5 
 
>  <HBD> 
1 
 
>  <TPSA> 
66.48 
 
>  <cid> 
20340 
 
>  <dipole> 
5.11 
 
>  <excitation_energy_1> 
4.506 
 
>  <excitation_energy_2> 
4.84 
 
>  <excitation_energy_3> 
5.096 
 
>  <excitation_energy_4> 
5.318 
 
>  <homo_energy> 
-7.225 
 
>  <homo_lumo_gap> 
5.791 
 
>  <logP> 
0.624 
 
>  <lumo_energy> 
-1.434 
 
>  <melting_point> 
117.03 
 
>  <molecular_refractivity> 
57.52 
 
>  <oscillator_strength_1> 
0.0006 
 
>  <oscillator_strength_2> 
0.0008 
 
>  <oscillator_strength_3> 
0.0112 
 
>  <oscillator_strength_4> 
0.0382 
 
>  <open_babel_can_smiles> 
O=C1N=C(O)[C@](C(=O)N1C)(C)C(C)C 
 
>  <mulliken_charges> 
28 
1   -0.478015 
2   -0.50037 
3   -0.478119 
4   -0.322771 
5   -0.068127 
6   0.539482 
7   0.640541 
8   0.701569 
9   -0.130935 
10   -0.490567 
11   -0.510182 
12   -0.567007 
13   -0.514499 
14   -0.465955 
15   0.157376 
16   0.166579 
17   0.167549 
18   0.168964 
19   0.148163 
20   0.161313 
21   0.139678 
22   0.20125 
23   0.17473 
24   0.195976 
25   0.180786 
26   0.183618 
27   0.171612 
28   0.427364 
 
>  <lowdin_charges> 
28 
1   -0.452763 
2   -0.464986 
3   -0.439243 
4   -0.351333 
5   -0.113798 
6   0.160116 
7   0.168441 
8   0.180718 
9   -0.053619 
10   -0.183381 
11   -0.089546 
12   -0.317572 
13   -0.284567 
14   -0.24428 
15   0.158908 
16   0.158686 
17   0.159905 
18   0.165888 
19   0.150156 
20   0.154785 
21   0.145709 
22   0.18228 
23   0.165343 
24   0.180388 
25   0.168381 
26   0.171285 
27   0.163811 
28   0.360287 
 
$$$$ 
 
