PCCDB-ID:  33348 
public computational chemistry database (PCCDB) project, http://pccdb.org 
 
 22 22  0  0  0  0  0  0  0  0999 V2000 
    0.6350    0.0553    0.0250 C   0  0  0  0  0  0  0  0  0  0  0  0 
    2.8088   -1.2511   -0.0453 C   0  0  0  0  0  0  0  0  0  0  0  0 
    2.9065    1.1333   -0.2977 C   0  0  0  0  0  0  0  0  0  0  0  0 
    4.2000   -1.3172   -0.1497 C   0  0  0  0  0  0  0  0  0  0  0  0 
    4.2928    1.0702   -0.4085 C   0  0  0  0  0  0  0  0  0  0  0  0 
    6.4669   -0.2312   -0.4707 C   0  0  0  0  0  0  0  0  0  0  0  0 
    2.1376   -0.0262   -0.1142 C   0  0  0  0  0  0  0  0  0  0  0  0 
    4.9619   -0.1608   -0.3380 C   0  0  0  0  0  0  0  0  0  0  0  0 
    8.5670    0.4596    0.4186 N   0  0  0  0  0  0  0  0  0  0  0  0 
    7.1132    0.7344    0.4304 N   0  0  0  0  0  0  0  0  0  0  0  0 
    0.1688   -0.9296   -0.0811 H   0  0  0  0  0  0  0  0  0  0  0  0 
    0.1970    0.7182   -0.7304 H   0  0  0  0  0  0  0  0  0  0  0  0 
    0.3455    0.4523    1.0070 H   0  0  0  0  0  0  0  0  0  0  0  0 
    2.2388   -2.1667    0.0967 H   0  0  0  0  0  0  0  0  0  0  0  0 
    2.4089    2.0993   -0.3585 H   0  0  0  0  0  0  0  0  0  0  0  0 
    4.6975   -2.2827   -0.0870 H   0  0  0  0  0  0  0  0  0  0  0  0 
    4.8728    1.9789   -0.5410 H   0  0  0  0  0  0  0  0  0  0  0  0 
    6.7666    0.0358   -1.4963 H   0  0  0  0  0  0  0  0  0  0  0  0 
    6.8204   -1.2615   -0.2984 H   0  0  0  0  0  0  0  0  0  0  0  0 
    8.9648    1.2532    0.9286 H   0  0  0  0  0  0  0  0  0  0  0  0 
    8.8419    0.6523   -0.5492 H   0  0  0  0  0  0  0  0  0  0  0  0 
    6.8315    0.4631    1.3750 H   0  0  0  0  0  0  0  0  0  0  0  0 
  1 13  1  0  0  0  0 
  2 14  1  0  0  0  0 
  3  7  2  0  0  0  0 
  4 16  1  0  0  0  0 
  4  2  2  0  0  0  0 
  5  8  2  0  0  0  0 
  5  3  1  0  0  0  0 
  6  8  1  0  0  0  0 
  6 19  1  0  0  0  0 
  6 10  1  0  0  0  0 
  7  2  1  0  0  0  0 
  7  1  1  0  0  0  0 
  8  4  1  0  0  0  0 
  9 10  1  0  0  0  0 
  9 20  1  0  0  0  0 
 10 22  1  0  0  0  0 
 11  1  1  0  0  0  0 
 12  1  1  0  0  0  0 
 15  3  1  0  0  0  0 
 17  5  1  0  0  0  0 
 18  6  1  0  0  0  0 
 21  9  1  0  0  0  0 
M  END 
>  <HBA> 
2 
 
>  <HBD> 
2 
 
>  <TPSA> 
38.05 
 
>  <cid> 
33348 
 
>  <dipole> 
0.55 
 
>  <excitation_energy_1> 
4.546 
 
>  <excitation_energy_2> 
4.698 
 
>  <excitation_energy_3> 
4.966 
 
>  <excitation_energy_4> 
5.198 
 
>  <homo_energy> 
-5.347 
 
>  <homo_lumo_gap> 
5.426 
 
>  <logP> 
2.05 
 
>  <lumo_energy> 
0.079 
 
>  <melting_point> 
93.42 
 
>  <molecular_refractivity> 
41.88 
 
>  <oscillator_strength_1> 
0.0037 
 
>  <oscillator_strength_2> 
0.0086 
 
>  <oscillator_strength_3> 
0.0068 
 
>  <oscillator_strength_4> 
0.0011 
 
>  <open_babel_can_smiles> 
NNCc1ccc(cc1)C 
 
>  <mulliken_charges> 
22 
1   -0.529774 
2   -0.182803 
3   -0.17998 
4   -0.184376 
5   -0.161417 
6   -0.194284 
7   0.179141 
8   0.129104 
9   -0.59347 
10   -0.464812 
11   0.154317 
12   0.158715 
13   0.163746 
14   0.120052 
15   0.120315 
16   0.123836 
17   0.140014 
18   0.145354 
19   0.137612 
20   0.305617 
21   0.302753 
22   0.31034 
 
>  <lowdin_charges> 
22 
1   -0.443134 
2   -0.170512 
3   -0.166344 
4   -0.165345 
5   -0.156626 
6   -0.203843 
7   0.000859 
8   -0.019474 
9   -0.496128 
10   -0.31896 
11   0.156054 
12   0.16007 
13   0.160652 
14   0.153872 
15   0.153307 
16   0.154667 
17   0.164476 
18   0.14268 
19   0.132324 
20   0.255448 
21   0.251254 
22   0.254704 
 
$$$$ 
 
