PCCDB-ID:  61808 
public computational chemistry database (PCCDB) project, http://pccdb.org 
 
 20 20  0  0  0  0  0  0  0  0999 V2000 
    0.9169   -0.0197   -0.1437 C   0  0  0  0  0  0  0  0  0  0  0  0 
    3.1694   -0.7604   -1.0663 C   0  0  0  0  0  0  0  0  0  0  0  0 
    4.4175    4.3266    1.6956 C   0  0  0  0  0  0  0  0  0  0  0  0 
    3.4359    3.8664   -0.6197 C   0  0  0  0  0  0  0  0  0  0  0  0 
    2.4473    0.1033   -0.0158 C   0  0  0  0  0  0  0  0  0  0  0  0 
    3.7688    3.4736    0.6451 C   0  0  0  0  0  0  0  0  0  0  0  0 
    2.9006    1.5426   -0.0549 C   0  0  0  0  0  0  0  0  0  0  0  0 
    3.4584    2.1581    0.9461 N   0  0  0  0  0  0  0  0  0  0  0  0 
    2.7042    2.5561   -1.4927 S   0  0  0  0  0  0  0  0  0  0  0  0 
    0.6099   -1.0660   -0.0322 H   0  0  0  0  0  0  0  0  0  0  0  0 
    0.5700    0.3287   -1.1238 H   0  0  0  0  0  0  0  0  0  0  0  0 
    0.4072    0.5709    0.6246 H   0  0  0  0  0  0  0  0  0  0  0  0 
    2.8763   -1.8111   -0.9596 H   0  0  0  0  0  0  0  0  0  0  0  0 
    4.2567   -0.6950   -0.9545 H   0  0  0  0  0  0  0  0  0  0  0  0 
    2.9149   -0.4446   -2.0852 H   0  0  0  0  0  0  0  0  0  0  0  0 
    4.6050    5.3387    1.3253 H   0  0  0  0  0  0  0  0  0  0  0  0 
    5.3720    3.8917    2.0144 H   0  0  0  0  0  0  0  0  0  0  0  0 
    3.7819    4.3956    2.5863 H   0  0  0  0  0  0  0  0  0  0  0  0 
    3.5791    4.8340   -1.0808 H   0  0  0  0  0  0  0  0  0  0  0  0 
    2.7398   -0.2453    0.9817 H   0  0  0  0  0  0  0  0  0  0  0  0 
  1 10  1  0  0  0  0 
  1  5  1  0  0  0  0 
  1 12  1  0  0  0  0 
  2 13  1  0  0  0  0 
  2 14  1  0  0  0  0 
  2  5  1  0  0  0  0 
  3 17  1  0  0  0  0 
  3 18  1  0  0  0  0 
  4  6  2  0  0  0  0 
  5 20  1  0  0  0  0 
  6  8  1  0  0  0  0 
  6  3  1  0  0  0  0 
  7  5  1  0  0  0  0 
  7  8  2  0  0  0  0 
  9  4  1  0  0  0  0 
  9  7  1  0  0  0  0 
 11  1  1  0  0  0  0 
 15  2  1  0  0  0  0 
 16  3  1  0  0  0  0 
 19  4  1  0  0  0  0 
M  END 
>  <HBA> 
2 
 
>  <HBD> 
0 
 
>  <TPSA> 
41.13 
 
>  <cid> 
61808 
 
>  <dipole> 
0.53 
 
>  <excitation_energy_1> 
5.268 
 
>  <excitation_energy_2> 
5.393 
 
>  <excitation_energy_3> 
5.403 
 
>  <excitation_energy_4> 
5.817 
 
>  <homo_energy> 
-6.202 
 
>  <homo_lumo_gap> 
5.821 
 
>  <logP> 
2.575 
 
>  <lumo_energy> 
-0.381 
 
>  <melting_point> 
25.4 
 
>  <molecular_refractivity> 
41.66 
 
>  <oscillator_strength_1> 
0.096 
 
>  <oscillator_strength_2> 
0.0002 
 
>  <oscillator_strength_3> 
0.0003 
 
>  <oscillator_strength_4> 
0.0045 
 
>  <open_babel_can_smiles> 
Cc1csc(n1)C(C)C 
 
>  <mulliken_charges> 
20 
1   -0.448384 
2   -0.450268 
3   -0.504883 
4   -0.388428 
5   -0.134814 
6   0.317012 
7   0.105856 
8   -0.443455 
9   0.204867 
10   0.147643 
11   0.15192 
12   0.160098 
13   0.147883 
14   0.159866 
15   0.152309 
16   0.150488 
17   0.168944 
18   0.169012 
19   0.16912 
20   0.165212 
 
>  <lowdin_charges> 
20 
1   -0.441577 
2   -0.437938 
3   -0.436424 
4   -0.35116 
5   -0.12119 
6   0.019951 
7   -0.077024 
8   -0.175006 
9   0.263748 
10   0.151263 
11   0.152003 
12   0.159045 
13   0.151332 
14   0.155712 
15   0.151552 
16   0.156662 
17   0.166078 
18   0.166465 
19   0.183099 
20   0.163409 
 
$$$$ 
 
