PCCDB-ID:  51294 
public computational chemistry database (PCCDB) project, http://pccdb.org 
 
 31 31  0  0  0  0  0  0  0  0999 V2000 
   -0.5121   -0.0238    3.5242 C   0  0  0  0  0  0  0  0  0  0  0  0 
    0.3978   -1.6648   -0.9551 C   0  0  0  0  0  0  0  0  0  0  0  0 
    5.9660    4.6296   -1.8285 C   0  0  0  0  0  0  0  0  0  0  0  0 
    6.4272    2.2754   -1.8407 C   0  0  0  0  0  0  0  0  0  0  0  0 
    4.6275    3.1510   -0.4637 C   0  0  0  0  0  0  0  0  0  0  0  0 
    3.6055    2.0218   -0.5651 C   0  0  0  0  0  0  0  0  0  0  0  0 
    1.2758    1.0644    2.1006 C   0  0  0  0  0  0  0  0  0  0  0  0 
    0.2920    0.1013    2.2579 C   0  0  0  0  0  0  0  0  0  0  0  0 
    0.7014   -0.6841    0.1465 C   0  0  0  0  0  0  0  0  0  0  0  0 
    1.9507    1.0726    0.8680 C   0  0  0  0  0  0  0  0  0  0  0  0 
   -0.0007   -0.7821    1.2741 N   0  0  0  0  0  0  0  0  0  0  0  0 
    1.6763    0.2139   -0.1062 N   0  0  0  0  0  0  0  0  0  0  0  0 
    5.3939    3.2952   -1.6995 N   0  0  0  0  0  0  0  0  0  0  0  0 
    2.9090    1.9997    0.6956 O   0  0  0  0  0  0  0  0  0  0  0  0 
   -0.2103    0.7135    4.2736 H   0  0  0  0  0  0  0  0  0  0  0  0 
   -0.3949   -1.0280    3.9468 H   0  0  0  0  0  0  0  0  0  0  0  0 
   -1.5783    0.1076    3.3075 H   0  0  0  0  0  0  0  0  0  0  0  0 
   -0.4841   -2.2558   -0.7024 H   0  0  0  0  0  0  0  0  0  0  0  0 
    1.2487   -2.3404   -1.1057 H   0  0  0  0  0  0  0  0  0  0  0  0 
    0.2353   -1.1388   -1.9017 H   0  0  0  0  0  0  0  0  0  0  0  0 
    6.4730    4.7170   -2.7958 H   0  0  0  0  0  0  0  0  0  0  0  0 
    6.7034    4.8703   -1.0371 H   0  0  0  0  0  0  0  0  0  0  0  0 
    5.1703    5.3810   -1.7934 H   0  0  0  0  0  0  0  0  0  0  0  0 
    6.9185    2.3860   -2.8132 H   0  0  0  0  0  0  0  0  0  0  0  0 
    5.9888    1.2740   -1.8035 H   0  0  0  0  0  0  0  0  0  0  0  0 
    7.2050    2.3384   -1.0536 H   0  0  0  0  0  0  0  0  0  0  0  0 
    5.2735    2.9860    0.4205 H   0  0  0  0  0  0  0  0  0  0  0  0 
    4.0802    4.0828   -0.2844 H   0  0  0  0  0  0  0  0  0  0  0  0 
    4.0670    1.0455   -0.7393 H   0  0  0  0  0  0  0  0  0  0  0  0 
    2.9007    2.2077   -1.3808 H   0  0  0  0  0  0  0  0  0  0  0  0 
    1.5250    1.7817    2.8739 H   0  0  0  0  0  0  0  0  0  0  0  0 
  1 16  1  0  0  0  0 
  1 15  1  0  0  0  0 
  2 18  1  0  0  0  0 
  2  9  1  0  0  0  0 
  3 23  1  0  0  0  0 
  3 13  1  0  0  0  0 
  3 22  1  0  0  0  0 
  4 25  1  0  0  0  0 
  4 13  1  0  0  0  0 
  4 26  1  0  0  0  0 
  5 28  1  0  0  0  0 
  5 27  1  0  0  0  0 
  6  5  1  0  0  0  0 
  6 14  1  0  0  0  0 
  7  8  2  0  0  0  0 
  7 31  1  0  0  0  0 
  8  1  1  0  0  0  0 
  9 11  2  0  0  0  0 
 10  7  1  0  0  0  0 
 11  8  1  0  0  0  0 
 12  9  1  0  0  0  0 
 12 10  2  0  0  0  0 
 13  5  1  0  0  0  0 
 14 10  1  0  0  0  0 
 17  1  1  0  0  0  0 
 19  2  1  0  0  0  0 
 20  2  1  0  0  0  0 
 21  3  1  0  0  0  0 
 24  4  1  0  0  0  0 
 29  6  1  0  0  0  0 
 30  6  1  0  0  0  0 
M  END 
>  <HBA> 
4 
 
>  <HBD> 
0 
 
>  <TPSA> 
38.25 
 
>  <cid> 
51294 
 
>  <dipole> 
1.78 
 
>  <excitation_energy_1> 
4.835 
 
>  <excitation_energy_2> 
4.894 
 
>  <excitation_energy_3> 
5.105 
 
>  <excitation_energy_4> 
5.14 
 
>  <homo_energy> 
-5.889 
 
>  <homo_lumo_gap> 
5.442 
 
>  <logP> 
1.034 
 
>  <lumo_energy> 
-0.446 
 
>  <melting_point> 
49.75 
 
>  <molecular_refractivity> 
55.77 
 
>  <oscillator_strength_1> 
0.0011 
 
>  <oscillator_strength_2> 
0.0021 
 
>  <oscillator_strength_3> 
0.0046 
 
>  <oscillator_strength_4> 
0.0043 
 
>  <open_babel_can_smiles> 
CN(CCOc1cc(C)nc(n1)C)C 
 
>  <mulliken_charges> 
31 
1   -0.508216 
2   -0.502181 
3   -0.294895 
4   -0.30377 
5   -0.139192 
6   -0.025652 
7   -0.236807 
8   0.317018 
9   0.426894 
10   0.57878 
11   -0.495308 
12   -0.525135 
13   -0.372909 
14   -0.514822 
15   0.15215 
16   0.17546 
17   0.175611 
18   0.17061 
19   0.167744 
20   0.167604 
21   0.149862 
22   0.119971 
23   0.151625 
24   0.152293 
25   0.153563 
26   0.120574 
27   0.125051 
28   0.149108 
29   0.157158 
30   0.165589 
31   0.142222 
 
>  <lowdin_charges> 
31 
1   -0.442287 
2   -0.447366 
3   -0.356112 
4   -0.35827 
5   -0.207329 
6   -0.127832 
7   -0.236867 
8   0.082658 
9   0.106183 
10   0.156204 
11   -0.19956 
12   -0.21101 
13   -0.183365 
14   -0.185228 
15   0.156638 
16   0.171375 
17   0.170533 
18   0.167995 
19   0.168965 
20   0.167886 
21   0.150273 
22   0.122255 
23   0.15156 
24   0.15199 
25   0.150082 
26   0.122192 
27   0.126231 
28   0.15251 
29   0.150015 
30   0.156648 
31   0.173031 
 
$$$$ 
 
