PCCDB-ID:  61226 
public computational chemistry database (PCCDB) project, http://pccdb.org 
 
 21 20  0  0  0  0  0  0  0  0999 V2000 
    0.2221   -2.8945    0.6919 C   0  0  0  0  0  0  0  0  0  0  0  0 
    1.7162    0.9548    3.2047 C   0  0  0  0  0  0  0  0  0  0  0  0 
    5.2660   -1.0756   -1.2045 C   0  0  0  0  0  0  0  0  0  0  0  0 
    1.0324   -2.2826   -0.1684 C   0  0  0  0  0  0  0  0  0  0  0  0 
    1.9455    0.6758    1.7410 C   0  0  0  0  0  0  0  0  0  0  0  0 
    3.7610   -0.9878   -1.2568 C   0  0  0  0  0  0  0  0  0  0  0  0 
    1.8055   -1.0276    0.1068 C   0  0  0  0  0  0  0  0  0  0  0  0 
    2.3621    1.4591    0.9228 O   0  0  0  0  0  0  0  0  0  0  0  0 
    3.1016   -0.7034   -2.2312 O   0  0  0  0  0  0  0  0  0  0  0  0 
    1.6145   -0.6206    1.4481 O   0  0  0  0  0  0  0  0  0  0  0  0 
    3.2221   -1.2705   -0.0401 O   0  0  0  0  0  0  0  0  0  0  0  0 
   -0.3127   -3.7971    0.4110 H   0  0  0  0  0  0  0  0  0  0  0  0 
    0.0648   -2.5159    1.6966 H   0  0  0  0  0  0  0  0  0  0  0  0 
    0.6786    0.7342    3.4752 H   0  0  0  0  0  0  0  0  0  0  0  0 
    1.9430    2.0005    3.4141 H   0  0  0  0  0  0  0  0  0  0  0  0 
    2.3573    0.3065    3.8114 H   0  0  0  0  0  0  0  0  0  0  0  0 
    5.6576   -0.2114   -0.6562 H   0  0  0  0  0  0  0  0  0  0  0  0 
    5.6657   -1.0708   -2.2192 H   0  0  0  0  0  0  0  0  0  0  0  0 
    5.5839   -1.9767   -0.6723 H   0  0  0  0  0  0  0  0  0  0  0  0 
    1.1794   -2.6632   -1.1767 H   0  0  0  0  0  0  0  0  0  0  0  0 
    1.5357   -0.2217   -0.5785 H   0  0  0  0  0  0  0  0  0  0  0  0 
  1 13  1  0  0  0  0 
  2 15  1  0  0  0  0 
  2 14  1  0  0  0  0 
  2 16  1  0  0  0  0 
  3 19  1  0  0  0  0 
  3 17  1  0  0  0  0 
  4  7  1  0  0  0  0 
  4  1  2  0  0  0  0 
  5  2  1  0  0  0  0 
  6  3  1  0  0  0  0 
  6 11  1  0  0  0  0 
  7 10  1  0  0  0  0 
  8  5  2  0  0  0  0 
  9  6  2  0  0  0  0 
 10  5  1  0  0  0  0 
 11  7  1  0  0  0  0 
 12  1  1  0  0  0  0 
 18  3  1  0  0  0  0 
 20  4  1  0  0  0  0 
 21  7  1  0  0  0  0 
M  END 
>  <HBA> 
4 
 
>  <HBD> 
0 
 
>  <TPSA> 
52.6 
 
>  <cid> 
61226 
 
>  <dipole> 
3.02 
 
>  <excitation_energy_1> 
5.738 
 
>  <excitation_energy_2> 
5.791 
 
>  <excitation_energy_3> 
6.474 
 
>  <excitation_energy_4> 
6.578 
 
>  <homo_energy> 
-7.342 
 
>  <homo_lumo_gap> 
7.225 
 
>  <logP> 
0.625 
 
>  <lumo_energy> 
-0.117 
 
>  <melting_point> 
-22.94 
 
>  <molecular_refractivity> 
37.86 
 
>  <oscillator_strength_1> 
0.0019 
 
>  <oscillator_strength_2> 
0.0005 
 
>  <oscillator_strength_3> 
0.0318 
 
>  <oscillator_strength_4> 
0.0041 
 
>  <open_babel_can_smiles> 
C=CC(OC(=O)C)OC(=O)C 
 
>  <mulliken_charges> 
21 
1   -0.320434 
2   -0.529927 
3   -0.527978 
4   -0.111226 
5   0.61392 
6   0.616823 
7   0.329983 
8   -0.449918 
9   -0.464499 
10   -0.476617 
11   -0.467836 
12   0.150749 
13   0.159721 
14   0.185332 
15   0.187546 
16   0.189501 
17   0.193371 
18   0.184352 
19   0.181391 
20   0.161279 
21   0.194466 
 
>  <lowdin_charges> 
21 
1   -0.311946 
2   -0.463315 
3   -0.464227 
4   -0.167744 
5   0.2155 
6   0.210754 
7   0.113893 
8   -0.245123 
9   -0.260727 
10   -0.18416 
11   -0.198215 
12   0.165852 
13   0.166735 
14   0.178903 
15   0.177546 
16   0.183648 
17   0.18526 
18   0.176416 
19   0.177503 
20   0.170435 
21   0.173012 
 
$$$$ 
 
