PCCDB-ID:  22015 
public computational chemistry database (PCCDB) project, http://pccdb.org 
 
 20 20  0  0  0  0  0  0  0  0999 V2000 
    1.0048    0.0212    0.1784 C   0  0  0  0  0  0  0  0  0  0  0  0 
    6.8607    0.0038   -0.3899 C   0  0  0  0  0  0  0  0  0  0  0  0 
    3.2548    1.1890    0.0083 C   0  0  0  0  0  0  0  0  0  0  0  0 
    4.6450    1.1682   -0.1195 C   0  0  0  0  0  0  0  0  0  0  0  0 
    3.2120   -1.1907   -0.1203 C   0  0  0  0  0  0  0  0  0  0  0  0 
    5.2199   -2.5677   -0.3840 C   0  0  0  0  0  0  0  0  0  0  0  0 
    2.5068    0.0065    0.0138 C   0  0  0  0  0  0  0  0  0  0  0  0 
    5.3590   -0.0261   -0.2508 C   0  0  0  0  0  0  0  0  0  0  0  0 
    4.6086   -1.2284   -0.2498 C   0  0  0  0  0  0  0  0  0  0  0  0 
    6.4062   -2.8169   -0.5034 O   0  0  0  0  0  0  0  0  0  0  0  0 
    0.5813    0.9888   -0.1096 H   0  0  0  0  0  0  0  0  0  0  0  0 
    0.7159   -0.1651    1.2212 H   0  0  0  0  0  0  0  0  0  0  0  0 
    0.5264   -0.7521   -0.4326 H   0  0  0  0  0  0  0  0  0  0  0  0 
    7.2237    1.0366   -0.3729 H   0  0  0  0  0  0  0  0  0  0  0  0 
    7.1889   -0.4691   -1.3210 H   0  0  0  0  0  0  0  0  0  0  0  0 
    7.3508   -0.5542    0.4143 H   0  0  0  0  0  0  0  0  0  0  0  0 
    2.7440    2.1449    0.1033 H   0  0  0  0  0  0  0  0  0  0  0  0 
    5.1909    2.1086   -0.1202 H   0  0  0  0  0  0  0  0  0  0  0  0 
    2.6662   -2.1335   -0.1266 H   0  0  0  0  0  0  0  0  0  0  0  0 
    4.4767   -3.3975   -0.3678 H   0  0  0  0  0  0  0  0  0  0  0  0 
  1 12  1  0  0  0  0 
  2 14  1  0  0  0  0 
  2  8  1  0  0  0  0 
  2 16  1  0  0  0  0 
  3  7  1  0  0  0  0 
  3 17  1  0  0  0  0 
  4  3  2  0  0  0  0 
  5  7  2  0  0  0  0 
  6 20  1  0  0  0  0 
  6  9  1  0  0  0  0 
  7  1  1  0  0  0  0 
  8  9  2  0  0  0  0 
  8  4  1  0  0  0  0 
  9  5  1  0  0  0  0 
 10  6  2  0  0  0  0 
 11  1  1  0  0  0  0 
 13  1  1  0  0  0  0 
 15  2  1  0  0  0  0 
 18  4  1  0  0  0  0 
 19  5  1  0  0  0  0 
M  END 
>  <HBA> 
1 
 
>  <HBD> 
0 
 
>  <TPSA> 
17.07 
 
>  <cid> 
22015 
 
>  <dipole> 
3.32 
 
>  <excitation_energy_1> 
3.658 
 
>  <excitation_energy_2> 
4.344 
 
>  <excitation_energy_3> 
5.108 
 
>  <excitation_energy_4> 
5.585 
 
>  <homo_energy> 
-6.623 
 
>  <homo_lumo_gap> 
5.059 
 
>  <logP> 
2.116 
 
>  <lumo_energy> 
-1.565 
 
>  <melting_point> 
46.76 
 
>  <molecular_refractivity> 
41.76 
 
>  <oscillator_strength_1> 
0.0001 
 
>  <oscillator_strength_2> 
0.0451 
 
>  <oscillator_strength_3> 
0.1739 
 
>  <oscillator_strength_4> 
0.0002 
 
>  <open_babel_can_smiles> 
O=Cc1cc(C)ccc1C 
 
>  <mulliken_charges> 
20 
1   -0.530343 
2   -0.506778 
3   -0.166479 
4   -0.184793 
5   -0.247507 
6   0.181904 
7   0.179199 
8   0.130696 
9   0.07754 
10   -0.418875 
11   0.159127 
12   0.169462 
13   0.161879 
14   0.140989 
15   0.178524 
16   0.178267 
17   0.130481 
18   0.130965 
19   0.132169 
20   0.103572 
 
>  <lowdin_charges> 
20 
1   -0.442385 
2   -0.440109 
3   -0.145424 
4   -0.165607 
5   -0.149946 
6   0.039977 
7   -0.004628 
8   0.028201 
9   -0.060646 
10   -0.231173 
11   0.159313 
12   0.162907 
13   0.162022 
14   0.148704 
15   0.17246 
16   0.173188 
17   0.15873 
18   0.158786 
19   0.157579 
20   0.118052 
 
$$$$ 
 
