PCCDB-ID:  52280 
public computational chemistry database (PCCDB) project, http://pccdb.org 
 
 30 31  0  0  0  0  0  0  0  0999 V2000 
    5.9192   -2.3429   -2.0759 C   0  0  0  0  0  0  0  0  0  0  0  0 
    5.5306   -1.1487   -1.1983 C   0  0  0  0  0  0  0  0  0  0  0  0 
    5.3837   -1.5163    0.2842 C   0  0  0  0  0  0  0  0  0  0  0  0 
    4.2361   -2.8401    8.8404 C   0  0  0  0  0  0  0  0  0  0  0  0 
    3.9134   -1.7136    9.6140 C   0  0  0  0  0  0  0  0  0  0  0  0 
    5.0038   -0.3181    1.1673 C   0  0  0  0  0  0  0  0  0  0  0  0 
    4.4355   -2.7312    7.4681 C   0  0  0  0  0  0  0  0  0  0  0  0 
    3.7838   -0.4553    9.0278 C   0  0  0  0  0  0  0  0  0  0  0  0 
    4.8572   -0.7212    2.6360 C   0  0  0  0  0  0  0  0  0  0  0  0 
    4.3094   -1.4752    6.8598 C   0  0  0  0  0  0  0  0  0  0  0  0 
    3.9834   -0.3478    7.6512 C   0  0  0  0  0  0  0  0  0  0  0  0 
    4.2962    0.0258    5.2361 C   0  0  0  0  0  0  0  0  0  0  0  0 
    4.4783   -1.2265    5.5033 N   0  0  0  0  0  0  0  0  0  0  0  0 
    4.4123    0.7587    3.6409 S   0  0  0  0  0  0  0  0  0  0  0  0 
    3.8911    1.0770    6.6244 S   0  0  0  0  0  0  0  0  0  0  0  0 
    6.0100   -2.0516   -3.1283 H   0  0  0  0  0  0  0  0  0  0  0  0 
    5.1691   -3.1409   -2.0146 H   0  0  0  0  0  0  0  0  0  0  0  0 
    6.8808   -2.7679   -1.7634 H   0  0  0  0  0  0  0  0  0  0  0  0 
    4.5856   -0.7193   -1.5597 H   0  0  0  0  0  0  0  0  0  0  0  0 
    6.2852   -0.3563   -1.3016 H   0  0  0  0  0  0  0  0  0  0  0  0 
    6.3265   -1.9512    0.6463 H   0  0  0  0  0  0  0  0  0  0  0  0 
    4.6227   -2.3031    0.3896 H   0  0  0  0  0  0  0  0  0  0  0  0 
    4.3301   -3.8099    9.3208 H   0  0  0  0  0  0  0  0  0  0  0  0 
    3.7627   -1.8205   10.6844 H   0  0  0  0  0  0  0  0  0  0  0  0 
    4.0627    0.1181    0.8068 H   0  0  0  0  0  0  0  0  0  0  0  0 
    5.7697    0.4632    1.0718 H   0  0  0  0  0  0  0  0  0  0  0  0 
    4.6868   -3.5934    6.8585 H   0  0  0  0  0  0  0  0  0  0  0  0 
    3.5354    0.4140    9.6290 H   0  0  0  0  0  0  0  0  0  0  0  0 
    5.7870   -1.1331    3.0374 H   0  0  0  0  0  0  0  0  0  0  0  0 
    4.0727   -1.4697    2.7743 H   0  0  0  0  0  0  0  0  0  0  0  0 
  1 17  1  0  0  0  0 
  1 18  1  0  0  0  0 
  1  2  1  0  0  0  0 
  2  3  1  0  0  0  0 
  3 22  1  0  0  0  0 
  3 21  1  0  0  0  0 
  3  6  1  0  0  0  0 
  4 23  1  0  0  0  0 
  4  5  2  0  0  0  0 
  5 24  1  0  0  0  0 
  6  9  1  0  0  0  0 
  7  4  1  0  0  0  0 
  8  5  1  0  0  0  0 
  8 28  1  0  0  0  0 
  9 30  1  0  0  0  0 
  9 29  1  0  0  0  0 
  9 14  1  0  0  0  0 
 10  7  2  0  0  0  0 
 10 11  1  0  0  0  0 
 11  8  2  0  0  0  0 
 12 13  2  0  0  0  0 
 12 15  1  0  0  0  0 
 13 10  1  0  0  0  0 
 14 12  1  0  0  0  0 
 15 11  1  0  0  0  0 
 16  1  1  0  0  0  0 
 19  2  1  0  0  0  0 
 20  2  1  0  0  0  0 
 25  6  1  0  0  0  0 
 26  6  1  0  0  0  0 
 27  7  1  0  0  0  0 
M  END 
>  <HBA> 
3 
 
>  <HBD> 
0 
 
>  <TPSA> 
66.43 
 
>  <cid> 
52280 
 
>  <dipole> 
1.17 
 
>  <excitation_energy_1> 
4.536 
 
>  <excitation_energy_2> 
4.625 
 
>  <excitation_energy_3> 
4.675 
 
>  <excitation_energy_4> 
5.11 
 
>  <homo_energy> 
-5.886 
 
>  <homo_lumo_gap> 
5.097 
 
>  <logP> 
4.579 
 
>  <lumo_energy> 
-0.789 
 
>  <melting_point> 
73.55 
 
>  <molecular_refractivity> 
70.57 
 
>  <oscillator_strength_1> 
0.2793 
 
>  <oscillator_strength_2> 
0.0005 
 
>  <oscillator_strength_3> 
0.1077 
 
>  <oscillator_strength_4> 
0.0 
 
>  <open_babel_can_smiles> 
CCCCCSc1nc2c(s1)cccc2 
 
>  <mulliken_charges> 
30 
1   -0.442395 
2   -0.24829 
3   -0.250333 
4   -0.148487 
5   -0.119124 
6   -0.278035 
7   -0.142342 
8   -0.176517 
9   -0.409608 
10   0.284964 
11   -0.137155 
12   -0.080975 
13   -0.47481 
14   0.179697 
15   0.229946 
16   0.145176 
17   0.143601 
18   0.143645 
19   0.134321 
20   0.134278 
21   0.134995 
22   0.135072 
23   0.133343 
24   0.133129 
25   0.15189 
26   0.151745 
27   0.141584 
28   0.144185 
29   0.192712 
30   0.193786 
 
>  <lowdin_charges> 
30 
1   -0.443036 
2   -0.272106 
3   -0.274005 
4   -0.158791 
5   -0.156405 
6   -0.279599 
7   -0.159119 
8   -0.162052 
9   -0.358443 
10   0.023138 
11   -0.147035 
12   -0.190916 
13   -0.183921 
14   0.191766 
15   0.260358 
16   0.149927 
17   0.148032 
18   0.147423 
19   0.141052 
20   0.141444 
21   0.141742 
22   0.142164 
23   0.160318 
24   0.159052 
25   0.150519 
26   0.150807 
27   0.169492 
28   0.166653 
29   0.170305 
30   0.171236 
 
$$$$ 
 
