PCCDB-ID:  11016 
public computational chemistry database (PCCDB) project, http://pccdb.org 
 
 23 25  0  0  0  0  0  0  0  0999 V2000 
    0.1471   -1.9439    0.1510 C   0  0  0  0  0  0  0  0  0  0  0  0 
   -0.2766   -0.5967    0.6146 C   0  0  0  0  0  0  0  0  0  0  0  0 
   -4.3676   -1.2992   -1.0214 C   0  0  0  0  0  0  0  0  0  0  0  0 
   -3.8921   -0.0546   -0.3626 C   0  0  0  0  0  0  0  0  0  0  0  0 
   -0.9608    0.6240   -3.6504 C   0  0  0  0  0  0  0  0  0  0  0  0 
   -1.1140    1.4631   -2.4330 C   0  0  0  0  0  0  0  0  0  0  0  0 
   -0.2952   -0.9356   -0.8166 N   0  0  0  0  0  0  0  0  0  0  0  0 
   -2.9746   -1.1842   -0.5783 N   0  0  0  0  0  0  0  0  0  0  0  0 
   -1.9269    0.2505   -2.6131 N   0  0  0  0  0  0  0  0  0  0  0  0 
   -1.6755   -2.4055   -2.5627 O   0  0  0  0  0  0  0  0  0  0  0  0 
   -1.7145   -1.1829   -1.7217 P   0  0  0  0  0  0  0  0  0  0  0  0 
   -0.5191   -2.7797    0.3549 H   0  0  0  0  0  0  0  0  0  0  0  0 
    1.2032   -2.1972    0.0936 H   0  0  0  0  0  0  0  0  0  0  0  0 
    0.4696    0.1429    0.8978 H   0  0  0  0  0  0  0  0  0  0  0  0 
   -1.2300   -0.5266    1.1329 H   0  0  0  0  0  0  0  0  0  0  0  0 
   -4.5658   -1.2593   -2.0907 H   0  0  0  0  0  0  0  0  0  0  0  0 
   -4.9634   -2.0209   -0.4674 H   0  0  0  0  0  0  0  0  0  0  0  0 
   -4.1376    0.1405    0.6794 H   0  0  0  0  0  0  0  0  0  0  0  0 
   -3.7728    0.8247   -0.9911 H   0  0  0  0  0  0  0  0  0  0  0  0 
   -0.0553    0.0273   -3.7411 H   0  0  0  0  0  0  0  0  0  0  0  0 
   -1.4035    0.9384   -4.5926 H   0  0  0  0  0  0  0  0  0  0  0  0 
   -1.6714    2.3966   -2.4797 H   0  0  0  0  0  0  0  0  0  0  0  0 
   -0.3088    1.4314   -1.7029 H   0  0  0  0  0  0  0  0  0  0  0  0 
  1 12  1  0  0  0  0 
  1  2  1  0  0  0  0 
  2 14  1  0  0  0  0 
  2 15  1  0  0  0  0 
  3  8  1  0  0  0  0 
  3 17  1  0  0  0  0 
  3  4  1  0  0  0  0 
  4 18  1  0  0  0  0 
  5  9  1  0  0  0  0 
  5  6  1  0  0  0  0 
  6 23  1  0  0  0  0 
  7  1  1  0  0  0  0 
  7  2  1  0  0  0  0 
  8  4  1  0  0  0  0 
  9  6  1  0  0  0  0 
  9 11  1  0  0  0  0 
 10 11  2  0  0  0  0 
 11  7  1  0  0  0  0 
 11  8  1  0  0  0  0 
 13  1  1  0  0  0  0 
 16  3  1  0  0  0  0 
 19  4  1  0  0  0  0 
 20  5  1  0  0  0  0 
 21  5  1  0  0  0  0 
 22  6  1  0  0  0  0 
M  END 
>  <HBA> 
4 
 
>  <HBD> 
0 
 
>  <TPSA> 
35.91 
 
>  <cid> 
11016 
 
>  <dipole> 
4.42 
 
>  <excitation_energy_1> 
6.48 
 
>  <excitation_energy_2> 
6.539 
 
>  <excitation_energy_3> 
6.543 
 
>  <excitation_energy_4> 
6.778 
 
>  <homo_energy> 
-6.977 
 
>  <homo_lumo_gap> 
8.852 
 
>  <logP> 
-0.145 
 
>  <lumo_energy> 
1.875 
 
>  <melting_point> 
18.04 
 
>  <molecular_refractivity> 
53.71 
 
>  <oscillator_strength_1> 
0.0092 
 
>  <oscillator_strength_2> 
0.0022 
 
>  <oscillator_strength_3> 
0.0022 
 
>  <oscillator_strength_4> 
0.0139 
 
>  <open_babel_can_smiles> 
O=P(N1CC1)(N1CC1)N1CC1 
 
>  <mulliken_charges> 
23 
1   -0.184874 
2   -0.203036 
3   -0.184997 
4   -0.202967 
5   -0.184697 
6   -0.202896 
7   -0.506924 
8   -0.50783 
9   -0.507763 
10   -0.542365 
11   1.141838 
12   0.185471 
13   0.168778 
14   0.16068 
15   0.180336 
16   0.185661 
17   0.168721 
18   0.16059 
19   0.180739 
20   0.185618 
21   0.168697 
22   0.160679 
23   0.180541 
 
>  <lowdin_charges> 
23 
1   -0.210735 
2   -0.226821 
3   -0.208915 
4   -0.227571 
5   -0.210438 
6   -0.226198 
7   -0.365098 
8   -0.365507 
9   -0.3673 
10   -0.590471 
11   1.014143 
12   0.172045 
13   0.162759 
14   0.160081 
15   0.167031 
16   0.169538 
17   0.165622 
18   0.157892 
19   0.167784 
20   0.171304 
21   0.164207 
22   0.159072 
23   0.167575 
 
$$$$ 
 
