PCCDB-ID:  24828 
public computational chemistry database (PCCDB) project, http://pccdb.org 
 
 19 20  0  0  0  0  0  0  0  0999 V2000 
    1.0498   -0.0831    0.1165 C   0  0  0  0  0  0  0  0  0  0  0  0 
    3.6650   -4.6156   -3.3682 C   0  0  0  0  0  0  0  0  0  0  0  0 
    4.3359   -3.0080   -2.1439 C   0  0  0  0  0  0  0  0  0  0  0  0 
    2.9596   -2.9531   -2.0931 C   0  0  0  0  0  0  0  0  0  0  0  0 
    5.0479   -2.0151   -1.3927 C   0  0  0  0  0  0  0  0  0  0  0  0 
    3.0621   -1.0336   -0.6278 C   0  0  0  0  0  0  0  0  0  0  0  0 
    2.4943   -0.1236    0.0725 N   0  0  0  0  0  0  0  0  0  0  0  0 
    4.7639   -4.0501   -2.9438 N   0  0  0  0  0  0  0  0  0  0  0  0 
    2.5200   -3.9844   -2.8775 N   0  0  0  0  0  0  0  0  0  0  0  0 
    2.3003   -2.0128   -1.3692 N   0  0  0  0  0  0  0  0  0  0  0  0 
    4.4441   -1.1064   -0.6958 N   0  0  0  0  0  0  0  0  0  0  0  0 
    6.3947   -2.0221   -1.4099 O   0  0  0  0  0  0  0  0  0  0  0  0 
    0.7316    0.7480    0.7526 H   0  0  0  0  0  0  0  0  0  0  0  0 
    0.6010   -1.0010    0.5416 H   0  0  0  0  0  0  0  0  0  0  0  0 
    0.5876    0.0797   -0.8759 H   0  0  0  0  0  0  0  0  0  0  0  0 
    3.5951   -5.4734   -4.0221 H   0  0  0  0  0  0  0  0  0  0  0  0 
    1.5637   -4.2475   -3.0682 H   0  0  0  0  0  0  0  0  0  0  0  0 
    1.2924   -1.9688   -1.3353 H   0  0  0  0  0  0  0  0  0  0  0  0 
    6.6776   -2.7598   -1.9798 H   0  0  0  0  0  0  0  0  0  0  0  0 
  1 14  1  0  0  0  0 
  1 13  1  0  0  0  0 
  2  8  2  0  0  0  0 
  2  9  1  0  0  0  0 
  3  4  2  0  0  0  0 
  3  5  1  0  0  0  0 
  4 10  1  0  0  0  0 
  5 11  2  0  0  0  0 
  6  7  1  0  0  0  0 
  7  1  1  0  0  0  0 
  8  3  1  0  0  0  0 
  9  4  1  0  0  0  0 
 10 18  1  0  0  0  0 
 10  6  1  0  0  0  0 
 11  6  2  0  0  0  0 
 12  5  1  0  0  0  0 
 15  1  1  0  0  0  0 
 16  2  1  0  0  0  0 
 17  9  1  0  0  0  0 
 19 12  1  0  0  0  0 
M  RAD  1   7   2 
M  END 
>  <HBA> 
4 
 
>  <HBD> 
3 
 
>  <TPSA> 
86.46 
 
>  <cid> 
24828 
 
>  <dipole> 
8.59 
 
>  <excitation_energy_1> 
4.0 
 
>  <excitation_energy_2> 
4.179 
 
>  <excitation_energy_3> 
4.885 
 
>  <excitation_energy_4> 
4.888 
 
>  <homo_energy> 
-5.377 
 
>  <homo_lumo_gap> 
4.816 
 
>  <logP> 
-0.239 
 
>  <lumo_energy> 
-0.561 
 
>  <melting_point> 
244.21 
 
>  <molecular_refractivity> 
43.82 
 
>  <oscillator_strength_1> 
0.0035 
 
>  <oscillator_strength_2> 
0.1118 
 
>  <oscillator_strength_3> 
0.0543 
 
>  <oscillator_strength_4> 
0.1398 
 
>  <open_babel_can_smiles> 
C[N]C1=[N]=C(O)c2c(N1)[nH]cn2 
 
>  <mulliken_charges> 
19 
1   -0.343489 
2   0.219315 
3   0.124557 
4   0.654513 
5   0.528189 
6   0.64091 
7   -0.441587 
8   -0.511201 
9   -0.672254 
10   -0.777489 
11   -0.522936 
12   -0.592017 
13   0.170053 
14   0.123093 
15   0.122555 
16   0.172657 
17   0.340849 
18   0.334038 
19   0.430244 
 
>  <lowdin_charges> 
19 
1   -0.369108 
2   -0.079616 
3   -0.101665 
4   0.085253 
5   0.153969 
6   0.129263 
7   -0.237177 
8   -0.174287 
9   -0.196719 
10   -0.249572 
11   -0.1836 
12   -0.332695 
13   0.161504 
14   0.12694 
15   0.125834 
16   0.176209 
17   0.300501 
18   0.293949 
19   0.371017 
 
$$$$ 
 
