PCCDB-ID:  9195 
public computational chemistry database (PCCDB) project, http://pccdb.org 
 
 29 32  0  0  0  0  0  0  0  0999 V2000 
    2.8549   -1.0796   -0.0887 C   0  0  0  0  0  0  0  0  0  0  0  0 
    7.3517    6.4893   -1.6607 C   0  0  0  0  0  0  0  0  0  0  0  0 
    4.2647   -1.1006   -0.2199 C   0  0  0  0  0  0  0  0  0  0  0  0 
    6.0577    7.0187   -1.6190 C   0  0  0  0  0  0  0  0  0  0  0  0 
    2.1674    0.1082   -0.2039 C   0  0  0  0  0  0  0  0  0  0  0  0 
    7.5664    5.1182   -1.4728 C   0  0  0  0  0  0  0  0  0  0  0  0 
    4.9596    0.0632   -0.4632 C   0  0  0  0  0  0  0  0  0  0  0  0 
    4.9558    6.1911   -1.3896 C   0  0  0  0  0  0  0  0  0  0  0  0 
    2.1521    2.5643   -0.5763 C   0  0  0  0  0  0  0  0  0  0  0  0 
    2.8180    3.7435   -0.8180 C   0  0  0  0  0  0  0  0  0  0  0  0 
    6.4222    2.7945   -1.0104 C   0  0  0  0  0  0  0  0  0  0  0  0 
    2.8491    1.3281   -0.4546 C   0  0  0  0  0  0  0  0  0  0  0  0 
    6.4740    4.2910   -1.2442 C   0  0  0  0  0  0  0  0  0  0  0  0 
    4.2804    1.3059   -0.5872 C   0  0  0  0  0  0  0  0  0  0  0  0 
    5.1685    4.8239   -1.2022 C   0  0  0  0  0  0  0  0  0  0  0  0 
    4.2276    3.7254   -0.9476 C   0  0  0  0  0  0  0  0  0  0  0  0 
    4.9400    2.5350   -0.8346 C   0  0  0  0  0  0  0  0  0  0  0  0 
    2.3183   -2.0048    0.1032 H   0  0  0  0  0  0  0  0  0  0  0  0 
    8.1978    7.1470   -1.8408 H   0  0  0  0  0  0  0  0  0  0  0  0 
    4.7985   -2.0427   -0.1275 H   0  0  0  0  0  0  0  0  0  0  0  0 
    5.9078    8.0850   -1.7668 H   0  0  0  0  0  0  0  0  0  0  0  0 
    1.0845    0.1281   -0.1033 H   0  0  0  0  0  0  0  0  0  0  0  0 
    8.5751    4.7128   -1.5062 H   0  0  0  0  0  0  0  0  0  0  0  0 
    6.0416    0.0403   -0.5623 H   0  0  0  0  0  0  0  0  0  0  0  0 
    3.9530    6.6097   -1.3587 H   0  0  0  0  0  0  0  0  0  0  0  0 
    1.0695    2.5593   -0.4734 H   0  0  0  0  0  0  0  0  0  0  0  0 
    2.2689    4.6770   -0.9077 H   0  0  0  0  0  0  0  0  0  0  0  0 
    7.0003    2.4992   -0.1231 H   0  0  0  0  0  0  0  0  0  0  0  0 
    6.8449    2.2314   -1.8546 H   0  0  0  0  0  0  0  0  0  0  0  0 
  1 18  1  0  0  0  0 
  2  4  2  0  0  0  0 
  2  6  1  0  0  0  0 
  3 20  1  0  0  0  0 
  3  1  2  0  0  0  0 
  4  8  1  0  0  0  0 
  5 22  1  0  0  0  0 
  5  1  1  0  0  0  0 
  6 13  2  0  0  0  0 
  7  3  1  0  0  0  0 
  8 25  1  0  0  0  0 
  8 15  2  0  0  0  0 
  9 26  1  0  0  0  0 
  9 12  1  0  0  0  0 
 10  9  2  0  0  0  0 
 11 17  1  0  0  0  0 
 11 28  1  0  0  0  0 
 12  5  2  0  0  0  0 
 13 15  1  0  0  0  0 
 13 11  1  0  0  0  0 
 14  7  2  0  0  0  0 
 14 12  1  0  0  0  0 
 15 16  1  0  0  0  0 
 16 17  2  0  0  0  0 
 16 10  1  0  0  0  0 
 17 14  1  0  0  0  0 
 19  2  1  0  0  0  0 
 21  4  1  0  0  0  0 
 23  6  1  0  0  0  0 
 24  7  1  0  0  0  0 
 27 10  1  0  0  0  0 
 29 11  1  0  0  0  0 
M  END 
>  <HBA> 
0 
 
>  <HBD> 
0 
 
>  <TPSA> 
0.0 
 
>  <cid> 
9195 
 
>  <dipole> 
0.44 
 
>  <excitation_energy_1> 
3.807 
 
>  <excitation_energy_2> 
4.016 
 
>  <excitation_energy_3> 
4.535 
 
>  <excitation_energy_4> 
4.758 
 
>  <homo_energy> 
-5.456 
 
>  <homo_lumo_gap> 
4.318 
 
>  <logP> 
4.411 
 
>  <lumo_energy> 
-1.137 
 
>  <melting_point> 
118.85 
 
>  <molecular_refractivity> 
72.39 
 
>  <oscillator_strength_1> 
0.0456 
 
>  <oscillator_strength_2> 
0.1227 
 
>  <oscillator_strength_3> 
0.2287 
 
>  <oscillator_strength_4> 
0.6319 
 
>  <open_babel_can_smiles> 
c1ccc2c(c1)c1ccc3c(c1C2)cccc3 
 
>  <mulliken_charges> 
29 
1   -0.13148 
2   -0.129843 
3   -0.139599 
4   -0.137151 
5   -0.203883 
6   -0.207554 
7   -0.191171 
8   -0.195834 
9   -0.205007 
10   -0.187624 
11   -0.421411 
12   0.151968 
13   0.117543 
14   0.083303 
15   0.081331 
16   0.085227 
17   0.002907 
18   0.129119 
19   0.126352 
20   0.129111 
21   0.127144 
22   0.129543 
23   0.12452 
24   0.128984 
25   0.128095 
26   0.128577 
27   0.130418 
28   0.173388 
29   0.173027 
 
>  <lowdin_charges> 
29 
1   -0.162185 
2   -0.1609 
3   -0.156092 
4   -0.154478 
5   -0.151748 
6   -0.163669 
7   -0.158808 
8   -0.163988 
9   -0.152706 
10   -0.162314 
11   -0.278182 
12   -0.00085 
13   -0.002409 
14   -0.006816 
15   -0.011265 
16   -0.012616 
17   -0.008371 
18   0.158769 
19   0.157897 
20   0.158271 
21   0.155273 
22   0.155278 
23   0.155459 
24   0.155703 
25   0.156139 
26   0.155479 
27   0.159052 
28   0.169993 
29   0.170082 
 
$$$$ 
 
