PCCDB-ID:  30486 
public computational chemistry database (PCCDB) project, http://pccdb.org 
 
 17 16  0  0  0  0  0  0  0  0999 V2000 
    1.0200    0.0199    0.0873 C   0  0  0  0  0  0  0  0  0  0  0  0 
    0.4420   -1.1377   -0.7398 C   0  0  0  0  0  0  0  0  0  0  0  0 
    2.5424    0.1799   -0.0035 C   0  0  0  0  0  0  0  0  0  0  0  0 
    0.6946   -1.0724   -2.2493 C   0  0  0  0  0  0  0  0  0  0  0  0 
    3.2326   -1.0695    0.3443 N   0  0  0  0  0  0  0  0  0  0  0  0 
    0.0251    0.4184   -3.1125 S   0  0  0  0  0  0  0  0  0  0  0  0 
    0.7405   -0.1361    1.1398 H   0  0  0  0  0  0  0  0  0  0  0  0 
    0.5565    0.9656   -0.2185 H   0  0  0  0  0  0  0  0  0  0  0  0 
   -0.6399   -1.2007   -0.5589 H   0  0  0  0  0  0  0  0  0  0  0  0 
    0.8786   -2.0801   -0.3864 H   0  0  0  0  0  0  0  0  0  0  0  0 
    2.8372    1.0428    0.6206 H   0  0  0  0  0  0  0  0  0  0  0  0 
    2.8261    0.4379   -1.0313 H   0  0  0  0  0  0  0  0  0  0  0  0 
    0.2933   -1.9641   -2.7398 H   0  0  0  0  0  0  0  0  0  0  0  0 
    1.7674   -1.0493   -2.4626 H   0  0  0  0  0  0  0  0  0  0  0  0 
    3.0777   -1.2803    1.3301 H   0  0  0  0  0  0  0  0  0  0  0  0 
    4.2388   -0.9502    0.2384 H   0  0  0  0  0  0  0  0  0  0  0  0 
   -1.2761    0.2024   -2.8170 H   0  0  0  0  0  0  0  0  0  0  0  0 
  1  7  1  0  0  0  0 
  2  9  1  0  0  0  0 
  2 10  1  0  0  0  0 
  2  1  1  0  0  0  0 
  3  1  1  0  0  0  0 
  3  5  1  0  0  0  0 
  3 11  1  0  0  0  0 
  4  2  1  0  0  0  0 
  5 15  1  0  0  0  0 
  6 17  1  0  0  0  0 
  6  4  1  0  0  0  0 
  8  1  1  0  0  0  0 
 12  3  1  0  0  0  0 
 13  4  1  0  0  0  0 
 14  4  1  0  0  0  0 
 16  5  1  0  0  0  0 
M  END 
>  <HBA> 
2 
 
>  <HBD> 
2 
 
>  <TPSA> 
64.82 
 
>  <cid> 
30486 
 
>  <dipole> 
2.23 
 
>  <excitation_energy_1> 
5.215 
 
>  <excitation_energy_2> 
5.592 
 
>  <excitation_energy_3> 
5.806 
 
>  <excitation_energy_4> 
5.94 
 
>  <homo_energy> 
-6.251 
 
>  <homo_lumo_gap> 
7.178 
 
>  <logP> 
1.355 
 
>  <lumo_energy> 
0.928 
 
>  <melting_point> 
49.27 
 
>  <molecular_refractivity> 
31.98 
 
>  <oscillator_strength_1> 
0.0129 
 
>  <oscillator_strength_2> 
0.0077 
 
>  <oscillator_strength_3> 
0.0271 
 
>  <oscillator_strength_4> 
0.0013 
 
>  <open_babel_can_smiles> 
NCCCCS 
 
>  <mulliken_charges> 
17 
1   -0.260363 
2   -0.239534 
3   -0.141138 
4   -0.414139 
5   -0.716608 
6   -0.100353 
7   0.123704 
8   0.15662 
9   0.127871 
10   0.161037 
11   0.116576 
12   0.144563 
13   0.174252 
14   0.187336 
15   0.292015 
16   0.29789 
17   0.090272 
 
>  <lowdin_charges> 
17 
1   -0.283342 
2   -0.278523 
3   -0.207107 
4   -0.368508 
5   -0.558101 
6   -0.100675 
7   0.137337 
8   0.155818 
9   0.138882 
10   0.158634 
11   0.122161 
12   0.14144 
13   0.161258 
14   0.169147 
15   0.249281 
16   0.253711 
17   0.108587 
 
$$$$ 
 
