PCCDB-ID:  15404 
public computational chemistry database (PCCDB) project, http://pccdb.org 
 
 24 23  0  0  0  0  0  0  0  0999 V2000 
    1.3935   -0.9940   -0.0247 C   0  0  0  0  0  0  0  0  0  0  0  0 
    4.7333   -2.0978    5.0393 C   0  0  0  0  0  0  0  0  0  0  0  0 
    3.8437    1.3664    4.9806 C   0  0  0  0  0  0  0  0  0  0  0  0 
    2.6659   -0.4765    0.6538 C   0  0  0  0  0  0  0  0  0  0  0  0 
    3.5712   -1.0969    5.1681 C   0  0  0  0  0  0  0  0  0  0  0  0 
    2.5648   -0.4473    2.1844 C   0  0  0  0  0  0  0  0  0  0  0  0 
    3.8505    0.0696    2.8602 C   0  0  0  0  0  0  0  0  0  0  0  0 
    3.7613    0.1790    4.3699 C   0  0  0  0  0  0  0  0  0  0  0  0 
    1.4958   -0.9994   -1.1159 H   0  0  0  0  0  0  0  0  0  0  0  0 
    0.5282   -0.3678    0.2255 H   0  0  0  0  0  0  0  0  0  0  0  0 
    1.1625   -2.0182    0.2931 H   0  0  0  0  0  0  0  0  0  0  0  0 
    4.5530   -2.9798    5.6641 H   0  0  0  0  0  0  0  0  0  0  0  0 
    5.6779   -1.6433    5.3590 H   0  0  0  0  0  0  0  0  0  0  0  0 
    4.8614   -2.4458    4.0083 H   0  0  0  0  0  0  0  0  0  0  0  0 
    3.7742    1.4611    6.0621 H   0  0  0  0  0  0  0  0  0  0  0  0 
    3.9844    2.2899    4.4235 H   0  0  0  0  0  0  0  0  0  0  0  0 
    2.8909    0.5351    0.2871 H   0  0  0  0  0  0  0  0  0  0  0  0 
    3.5196   -1.1035    0.3591 H   0  0  0  0  0  0  0  0  0  0  0  0 
    3.4377   -0.8371    6.2250 H   0  0  0  0  0  0  0  0  0  0  0  0 
    2.6424   -1.5954    4.8554 H   0  0  0  0  0  0  0  0  0  0  0  0 
    2.3316   -1.4583    2.5463 H   0  0  0  0  0  0  0  0  0  0  0  0 
    1.7211    0.1896    2.4849 H   0  0  0  0  0  0  0  0  0  0  0  0 
    4.0972    1.0554    2.4457 H   0  0  0  0  0  0  0  0  0  0  0  0 
    4.6812   -0.5958    2.5816 H   0  0  0  0  0  0  0  0  0  0  0  0 
  1 10  1  0  0  0  0 
  1 11  1  0  0  0  0 
  1  4  1  0  0  0  0 
  2  5  1  0  0  0  0 
  2 13  1  0  0  0  0 
  2 12  1  0  0  0  0 
  3 15  1  0  0  0  0 
  4  6  1  0  0  0  0 
  5 19  1  0  0  0  0 
  6 22  1  0  0  0  0 
  6 21  1  0  0  0  0 
  6  7  1  0  0  0  0 
  7  8  1  0  0  0  0 
  8  3  2  0  0  0  0 
  8  5  1  0  0  0  0 
  9  1  1  0  0  0  0 
 14  2  1  0  0  0  0 
 16  3  1  0  0  0  0 
 17  4  1  0  0  0  0 
 18  4  1  0  0  0  0 
 20  5  1  0  0  0  0 
 23  7  1  0  0  0  0 
 24  7  1  0  0  0  0 
M  END 
>  <HBA> 
0 
 
>  <HBD> 
0 
 
>  <TPSA> 
0.0 
 
>  <cid> 
15404 
 
>  <dipole> 
0.52 
 
>  <excitation_energy_1> 
6.136 
 
>  <excitation_energy_2> 
6.371 
 
>  <excitation_energy_3> 
6.562 
 
>  <excitation_energy_4> 
6.686 
 
>  <homo_energy> 
-6.474 
 
>  <homo_lumo_gap> 
7.276 
 
>  <logP> 
3.143 
 
>  <lumo_energy> 
0.803 
 
>  <melting_point> 
-45.07 
 
>  <molecular_refractivity> 
40.1 
 
>  <oscillator_strength_1> 
0.0322 
 
>  <oscillator_strength_2> 
0.1311 
 
>  <oscillator_strength_3> 
0.0103 
 
>  <oscillator_strength_4> 
0.0011 
 
>  <open_babel_can_smiles> 
CCCCC(=C)CC 
 
>  <mulliken_charges> 
24 
1   -0.441802 
2   -0.44523 
3   -0.412066 
4   -0.246318 
5   -0.326295 
6   -0.250953 
7   -0.334649 
8   0.246055 
9   0.142273 
10   0.142701 
11   0.141142 
12   0.144111 
13   0.150613 
14   0.146198 
15   0.12906 
16   0.129351 
17   0.131713 
18   0.130036 
19   0.138906 
20   0.143488 
21   0.131619 
22   0.135765 
23   0.135613 
24   0.138668 
 
>  <lowdin_charges> 
24 
1   -0.4419 
2   -0.444039 
3   -0.36439 
4   -0.271876 
5   -0.270922 
6   -0.275173 
7   -0.274423 
8   0.007233 
9   0.147573 
10   0.147478 
11   0.145197 
12   0.151143 
13   0.151122 
14   0.146487 
15   0.1497 
16   0.151839 
17   0.138699 
18   0.139292 
19   0.146513 
20   0.147147 
21   0.138063 
22   0.142932 
23   0.146231 
24   0.146074 
 
$$$$ 
 
