PCCDB-ID:  50407 
public computational chemistry database (PCCDB) project, http://pccdb.org 
 
 29 28  0  0  0  0  0  0  0  0999 V2000 
    5.2551   -0.6087   -2.9144 C   0  0  0  0  0  0  0  0  0  0  0  0 
    4.6484   -0.3626   -1.5291 C   0  0  0  0  0  0  0  0  0  0  0  0 
    5.0749   -1.4079   -0.4911 C   0  0  0  0  0  0  0  0  0  0  0  0 
    4.4698   -1.1651    0.8972 C   0  0  0  0  0  0  0  0  0  0  0  0 
    4.9181   -2.1768    1.9452 C   0  0  0  0  0  0  0  0  0  0  0  0 
    6.8480   -2.9947    3.0423 C   0  0  0  0  0  0  0  0  0  0  0  0 
    8.3432   -2.7304    3.1328 C   0  0  0  0  0  0  0  0  0  0  0  0 
   10.1825   -3.6437    4.2871 C   0  0  0  0  0  0  0  0  0  0  0  0 
   10.9534   -2.7967    3.7317 N   0  0  0  0  0  0  0  0  0  0  0  0 
   10.4699   -4.6280    5.1815 O   0  0  0  0  0  0  0  0  0  0  0  0 
    6.3202   -2.0545    2.1314 O   0  0  0  0  0  0  0  0  0  0  0  0 
    8.8665   -3.6981    4.0556 O   0  0  0  0  0  0  0  0  0  0  0  0 
    4.9348    0.1538   -3.6336 H   0  0  0  0  0  0  0  0  0  0  0  0 
    4.9553   -1.5869   -3.3101 H   0  0  0  0  0  0  0  0  0  0  0  0 
    6.3511   -0.5906   -2.8745 H   0  0  0  0  0  0  0  0  0  0  0  0 
    3.5515   -0.3512   -1.6063 H   0  0  0  0  0  0  0  0  0  0  0  0 
    4.9386    0.6368   -1.1751 H   0  0  0  0  0  0  0  0  0  0  0  0 
    6.1684   -1.4184   -0.4049 H   0  0  0  0  0  0  0  0  0  0  0  0 
    4.7829   -2.4092   -0.8426 H   0  0  0  0  0  0  0  0  0  0  0  0 
    3.3726   -1.1992    0.8401 H   0  0  0  0  0  0  0  0  0  0  0  0 
    4.7359   -0.1595    1.2495 H   0  0  0  0  0  0  0  0  0  0  0  0 
    4.6702   -3.2028    1.6208 H   0  0  0  0  0  0  0  0  0  0  0  0 
    4.3954   -2.0006    2.9007 H   0  0  0  0  0  0  0  0  0  0  0  0 
    6.3856   -2.8901    4.0376 H   0  0  0  0  0  0  0  0  0  0  0  0 
    6.6674   -4.0271    2.7006 H   0  0  0  0  0  0  0  0  0  0  0  0 
    8.5462   -1.7188    3.4959 H   0  0  0  0  0  0  0  0  0  0  0  0 
    8.8253   -2.8439    2.1575 H   0  0  0  0  0  0  0  0  0  0  0  0 
   11.9242   -2.9005    4.0250 H   0  0  0  0  0  0  0  0  0  0  0  0 
   11.4221   -4.6059    5.3610 H   0  0  0  0  0  0  0  0  0  0  0  0 
  1 15  1  0  0  0  0 
  1  2  1  0  0  0  0 
  2 17  1  0  0  0  0 
  2  3  1  0  0  0  0 
  3 18  1  0  0  0  0 
  3  4  1  0  0  0  0 
  4 21  1  0  0  0  0 
  4  5  1  0  0  0  0 
  5 11  1  0  0  0  0 
  5 23  1  0  0  0  0 
  6  7  1  0  0  0  0 
  6 24  1  0  0  0  0 
  7 26  1  0  0  0  0 
  7 12  1  0  0  0  0 
  8 10  1  0  0  0  0 
  9 28  1  0  0  0  0 
  9  8  2  0  0  0  0 
 10 29  1  0  0  0  0 
 11  6  1  0  0  0  0 
 12  8  1  0  0  0  0 
 13  1  1  0  0  0  0 
 14  1  1  0  0  0  0 
 16  2  1  0  0  0  0 
 19  3  1  0  0  0  0 
 20  4  1  0  0  0  0 
 22  5  1  0  0  0  0 
 25  6  1  0  0  0  0 
 27  7  1  0  0  0  0 
M  END 
>  <HBA> 
4 
 
>  <HBD> 
1 
 
>  <TPSA> 
61.55 
 
>  <cid> 
50407 
 
>  <dipole> 
1.18 
 
>  <excitation_energy_1> 
5.932 
 
>  <excitation_energy_2> 
6.255 
 
>  <excitation_energy_3> 
6.438 
 
>  <excitation_energy_4> 
6.653 
 
>  <homo_energy> 
-6.925 
 
>  <homo_lumo_gap> 
8.15 
 
>  <logP> 
1.989 
 
>  <lumo_energy> 
1.225 
 
>  <melting_point> 
40.18 
 
>  <molecular_refractivity> 
46.04 
 
>  <oscillator_strength_1> 
0.0052 
 
>  <oscillator_strength_2> 
0.0 
 
>  <oscillator_strength_3> 
0.0484 
 
>  <oscillator_strength_4> 
0.027 
 
>  <open_babel_can_smiles> 
CCCCCOCCOC(=N)O 
 
>  <mulliken_charges> 
29 
1   -0.441442 
2   -0.247243 
3   -0.24548 
4   -0.274825 
5   -0.008888 
6   -0.021721 
7   -0.035823 
8   0.64688 
9   -0.625053 
10   -0.570214 
11   -0.482188 
12   -0.453042 
13   0.140667 
14   0.140238 
15   0.14353 
16   0.126923 
17   0.131744 
18   0.15141 
19   0.121965 
20   0.130123 
21   0.144055 
22   0.117338 
23   0.12025 
24   0.131897 
25   0.132993 
26   0.170504 
27   0.170421 
28   0.276602 
29   0.408379 
 
>  <lowdin_charges> 
29 
1   -0.442832 
2   -0.268906 
3   -0.273849 
4   -0.27839 
5   -0.123974 
6   -0.132667 
7   -0.121995 
8   0.189642 
9   -0.466954 
10   -0.362907 
11   -0.273396 
12   -0.178385 
13   0.14961 
14   0.145424 
15   0.145341 
16   0.134568 
17   0.138912 
18   0.1473 
19   0.135079 
20   0.142643 
21   0.147391 
22   0.124179 
23   0.128241 
24   0.13219 
25   0.132114 
26   0.157919 
27   0.158271 
28   0.255997 
29   0.359433 
 
$$$$ 
 
