PCCDB-ID:  70972 
public computational chemistry database (PCCDB) project, http://pccdb.org 
 
 19 20  0  0  0  0  0  0  0  0999 V2000 
   -1.7256    0.0103    0.4212 C   0  0  0  0  0  0  0  0  0  0  0  0 
    1.0089   -5.4577   -0.0791 C   0  0  0  0  0  0  0  0  0  0  0  0 
   -0.7386   -0.8603    0.9900 C   0  0  0  0  0  0  0  0  0  0  0  0 
    0.7789   -4.1879   -0.7039 C   0  0  0  0  0  0  0  0  0  0  0  0 
   -1.2718    0.3369   -0.8190 C   0  0  0  0  0  0  0  0  0  0  0  0 
    1.7452   -5.2025    1.0360 C   0  0  0  0  0  0  0  0  0  0  0  0 
    1.5402   -1.7586    0.0011 C   0  0  0  0  0  0  0  0  0  0  0  0 
    0.2447   -1.0008    0.0546 C   0  0  0  0  0  0  0  0  0  0  0  0 
    1.3922   -3.2515    0.0760 C   0  0  0  0  0  0  0  0  0  0  0  0 
   -0.0734   -0.2705   -1.0602 O   0  0  0  0  0  0  0  0  0  0  0  0 
    1.9875   -3.8637    1.1475 O   0  0  0  0  0  0  0  0  0  0  0  0 
   -2.6460    0.3449    0.8795 H   0  0  0  0  0  0  0  0  0  0  0  0 
    0.6694   -6.4262   -0.4195 H   0  0  0  0  0  0  0  0  0  0  0  0 
   -0.7613   -1.3265    1.9654 H   0  0  0  0  0  0  0  0  0  0  0  0 
    0.2239   -3.9964   -1.6120 H   0  0  0  0  0  0  0  0  0  0  0  0 
   -1.6519    0.9557   -1.6173 H   0  0  0  0  0  0  0  0  0  0  0  0 
    2.1605   -5.8200    1.8176 H   0  0  0  0  0  0  0  0  0  0  0  0 
    2.1944   -1.4496    0.8249 H   0  0  0  0  0  0  0  0  0  0  0  0 
    2.0511   -1.4742   -0.9266 H   0  0  0  0  0  0  0  0  0  0  0  0 
  1 12  1  0  0  0  0 
  1  3  1  0  0  0  0 
  2  6  2  0  0  0  0 
  3 14  1  0  0  0  0 
  4  2  1  0  0  0  0 
  4  9  2  0  0  0  0 
  5  1  2  0  0  0  0 
  6 11  1  0  0  0  0 
  6 17  1  0  0  0  0 
  7  8  1  0  0  0  0 
  7  9  1  0  0  0  0 
  7 18  1  0  0  0  0 
  8  3  2  0  0  0  0 
  9 11  1  0  0  0  0 
 10  5  1  0  0  0  0 
 10  8  1  0  0  0  0 
 13  2  1  0  0  0  0 
 15  4  1  0  0  0  0 
 16  5  1  0  0  0  0 
 19  7  1  0  0  0  0 
M  END 
>  <HBA> 
2 
 
>  <HBD> 
0 
 
>  <TPSA> 
26.28 
 
>  <cid> 
70972 
 
>  <dipole> 
0.48 
 
>  <excitation_energy_1> 
5.238 
 
>  <excitation_energy_2> 
5.464 
 
>  <excitation_energy_3> 
5.5 
 
>  <excitation_energy_4> 
5.683 
 
>  <homo_energy> 
-5.687 
 
>  <homo_lumo_gap> 
6.025 
 
>  <logP> 
2.463 
 
>  <lumo_energy> 
0.337 
 
>  <melting_point> 
36.0 
 
>  <molecular_refractivity> 
40.43 
 
>  <oscillator_strength_1> 
0.1908 
 
>  <oscillator_strength_2> 
0.0473 
 
>  <oscillator_strength_3> 
0.0007 
 
>  <oscillator_strength_4> 
0.0104 
 
>  <open_babel_can_smiles> 
c1coc(c1)Cc1ccco1 
 
>  <mulliken_charges> 
19 
1   -0.179839 
2   -0.179837 
3   -0.199086 
4   -0.199293 
5   0.076818 
6   0.076754 
7   -0.461038 
8   0.354037 
9   0.354855 
10   -0.437996 
11   -0.438175 
12   0.139028 
13   0.138988 
14   0.141206 
15   0.141436 
16   0.151663 
17   0.151606 
18   0.184382 
19   0.184491 
 
>  <lowdin_charges> 
19 
1   -0.201971 
2   -0.201997 
3   -0.214616 
4   -0.215426 
5   -0.090681 
6   -0.089136 
7   -0.279825 
8   0.064371 
9   0.064495 
10   -0.102771 
11   -0.104777 
12   0.16824 
13   0.167849 
14   0.168907 
15   0.169488 
16   0.17055 
17   0.170802 
18   0.178559 
19   0.177941 
 
$$$$ 
 
