PCCDB-ID:  11279 
public computational chemistry database (PCCDB) project, http://pccdb.org 
 
 19 19  0  0  0  0  0  0  0  0999 V2000 
    0.7552    0.2506    0.2363 C   0  0  0  0  0  0  0  0  0  0  0  0 
    4.4554    1.0837    0.2730 C   0  0  0  0  0  0  0  0  0  0  0  0 
    3.0681    1.1683    0.3388 C   0  0  0  0  0  0  0  0  0  0  0  0 
    5.0610   -0.1359   -0.0043 C   0  0  0  0  0  0  0  0  0  0  0  0 
    2.2500    0.0485    0.1399 C   0  0  0  0  0  0  0  0  0  0  0  0 
    4.2636   -1.2583   -0.2171 C   0  0  0  0  0  0  0  0  0  0  0  0 
    2.8532   -1.2056   -0.1501 C   0  0  0  0  0  0  0  0  0  0  0  0 
    1.9823   -2.4226   -0.3641 C   0  0  0  0  0  0  0  0  0  0  0  0 
    4.8626   -2.4716   -0.4930 O   0  0  0  0  0  0  0  0  0  0  0  0 
    0.8113   -2.4517   -0.0510 O   0  0  0  0  0  0  0  0  0  0  0  0 
    2.5306   -3.5065   -0.9524 O   0  0  0  0  0  0  0  0  0  0  0  0 
    0.5340    1.3163    0.3517 H   0  0  0  0  0  0  0  0  0  0  0  0 
    0.3333   -0.2944    1.0849 H   0  0  0  0  0  0  0  0  0  0  0  0 
    0.2336   -0.1275   -0.6467 H   0  0  0  0  0  0  0  0  0  0  0  0 
    5.0670    1.9663    0.4373 H   0  0  0  0  0  0  0  0  0  0  0  0 
    2.5999    2.1248    0.5514 H   0  0  0  0  0  0  0  0  0  0  0  0 
    6.1446   -0.2241   -0.0562 H   0  0  0  0  0  0  0  0  0  0  0  0 
    5.8173   -2.3487   -0.6090 H   0  0  0  0  0  0  0  0  0  0  0  0 
    3.4912   -3.3841   -1.0774 H   0  0  0  0  0  0  0  0  0  0  0  0 
  1 12  1  0  0  0  0 
  1 13  1  0  0  0  0 
  2  3  1  0  0  0  0 
  2 15  1  0  0  0  0 
  3 16  1  0  0  0  0 
  4  2  2  0  0  0  0 
  5  1  1  0  0  0  0 
  5  3  2  0  0  0  0 
  6  7  2  0  0  0  0 
  6  4  1  0  0  0  0 
  7  5  1  0  0  0  0 
  8  7  1  0  0  0  0 
  8 10  2  0  0  0  0 
  9  6  1  0  0  0  0 
 11  8  1  0  0  0  0 
 14  1  1  0  0  0  0 
 17  4  1  0  0  0  0 
 18  9  1  0  0  0  0 
 19 11  1  0  0  0  0 
M  END 
>  <HBA> 
3 
 
>  <HBD> 
2 
 
>  <TPSA> 
57.53 
 
>  <cid> 
11279 
 
>  <dipole> 
6.08 
 
>  <excitation_energy_1> 
4.597 
 
>  <excitation_energy_2> 
4.664 
 
>  <excitation_energy_3> 
5.385 
 
>  <excitation_energy_4> 
5.441 
 
>  <homo_energy> 
-6.656 
 
>  <homo_lumo_gap> 
5.456 
 
>  <logP> 
1.399 
 
>  <lumo_energy> 
-1.2 
 
>  <melting_point> 
140.46 
 
>  <molecular_refractivity> 
40.39 
 
>  <oscillator_strength_1> 
0.003 
 
>  <oscillator_strength_2> 
0.0534 
 
>  <oscillator_strength_3> 
0.0046 
 
>  <oscillator_strength_4> 
0.0947 
 
>  <open_babel_can_smiles> 
OC(=O)c1c(C)cccc1O 
 
>  <mulliken_charges> 
19 
1   -0.498493 
2   -0.122302 
3   -0.184701 
4   -0.189487 
5   0.110023 
6   0.311854 
7   -0.021756 
8   0.56566 
9   -0.685686 
10   -0.463332 
11   -0.595805 
12   0.13805 
13   0.189302 
14   0.17935 
15   0.142945 
16   0.133295 
17   0.126548 
18   0.426311 
19   0.438227 
 
>  <lowdin_charges> 
19 
1   -0.438587 
2   -0.129596 
3   -0.18201 
4   -0.211564 
5   0.044652 
6   0.107218 
7   -0.093488 
8   0.192448 
9   -0.384785 
10   -0.251227 
11   -0.360734 
12   0.146265 
13   0.179342 
14   0.174211 
15   0.165834 
16   0.161295 
17   0.155542 
18   0.367496 
19   0.357687 
 
$$$$ 
 
