PCCDB-ID:  7514 
public computational chemistry database (PCCDB) project, http://pccdb.org 
 
 23 23  0  0  0  0  0  0  0  0999 V2000 
    2.6050    1.4070   -0.3581 C   0  0  0  0  0  0  0  0  0  0  0  0 
    3.9591   -2.9170    1.3768 C   0  0  0  0  0  0  0  0  0  0  0  0 
    2.4689   -2.8478    1.0081 C   0  0  0  0  0  0  0  0  0  0  0  0 
    4.6609   -1.5733    1.1262 C   0  0  0  0  0  0  0  0  0  0  0  0 
    2.2770   -2.3582   -0.4366 C   0  0  0  0  0  0  0  0  0  0  0  0 
    4.4574   -1.0981   -0.3205 C   0  0  0  0  0  0  0  0  0  0  0  0 
    2.9650   -1.0060   -0.7021 C   0  0  0  0  0  0  0  0  0  0  0  0 
    2.2869    0.0477    0.0665 N   0  0  0  0  0  0  0  0  0  0  0  0 
    1.9502    2.1110    0.1661 H   0  0  0  0  0  0  0  0  0  0  0  0 
    2.4953    1.5764   -1.4466 H   0  0  0  0  0  0  0  0  0  0  0  0 
    3.6357    1.6595   -0.0877 H   0  0  0  0  0  0  0  0  0  0  0  0 
    4.4452   -3.6974    0.7711 H   0  0  0  0  0  0  0  0  0  0  0  0 
    4.0768   -3.2191    2.4256 H   0  0  0  0  0  0  0  0  0  0  0  0 
    1.9578   -2.1607    1.6939 H   0  0  0  0  0  0  0  0  0  0  0  0 
    1.9991   -3.8322    1.1324 H   0  0  0  0  0  0  0  0  0  0  0  0 
    5.7338   -1.6603    1.3418 H   0  0  0  0  0  0  0  0  0  0  0  0 
    4.2547   -0.8180    1.8099 H   0  0  0  0  0  0  0  0  0  0  0  0 
    1.2065   -2.2825   -0.6777 H   0  0  0  0  0  0  0  0  0  0  0  0 
    2.6965   -3.0980   -1.1325 H   0  0  0  0  0  0  0  0  0  0  0  0 
    4.9384   -1.8046   -1.0123 H   0  0  0  0  0  0  0  0  0  0  0  0 
    4.9532   -0.1326   -0.4798 H   0  0  0  0  0  0  0  0  0  0  0  0 
    2.9042   -0.7957   -1.7893 H   0  0  0  0  0  0  0  0  0  0  0  0 
    1.2819   -0.0908   -0.0236 H   0  0  0  0  0  0  0  0  0  0  0  0 
  1 11  1  0  0  0  0 
  1  8  1  0  0  0  0 
  1  9  1  0  0  0  0 
  2 13  1  0  0  0  0 
  3 15  1  0  0  0  0 
  3  2  1  0  0  0  0 
  3 14  1  0  0  0  0 
  4 16  1  0  0  0  0 
  4  2  1  0  0  0  0 
  4 17  1  0  0  0  0 
  5  3  1  0  0  0  0 
  6  4  1  0  0  0  0 
  7  5  1  0  0  0  0 
  7  6  1  0  0  0  0 
  7  8  1  0  0  0  0 
 10  1  1  0  0  0  0 
 12  2  1  0  0  0  0 
 18  5  1  0  0  0  0 
 19  5  1  0  0  0  0 
 20  6  1  0  0  0  0 
 21  6  1  0  0  0  0 
 22  7  1  0  0  0  0 
 23  8  1  0  0  0  0 
M  END 
>  <HBA> 
1 
 
>  <HBD> 
1 
 
>  <TPSA> 
12.03 
 
>  <cid> 
7514 
 
>  <dipole> 
0.9 
 
>  <excitation_energy_1> 
5.26 
 
>  <excitation_energy_2> 
5.805 
 
>  <excitation_energy_3> 
5.885 
 
>  <excitation_energy_4> 
5.961 
 
>  <homo_energy> 
-5.834 
 
>  <homo_lumo_gap> 
7.913 
 
>  <logP> 
1.929 
 
>  <lumo_energy> 
2.079 
 
>  <melting_point> 
22.53 
 
>  <molecular_refractivity> 
36.45 
 
>  <oscillator_strength_1> 
0.0068 
 
>  <oscillator_strength_2> 
0.0232 
 
>  <oscillator_strength_3> 
0.0047 
 
>  <oscillator_strength_4> 
0.0234 
 
>  <open_babel_can_smiles> 
CNC1CCCCC1 
 
>  <mulliken_charges> 
23 
1   -0.303854 
2   -0.257859 
3   -0.248018 
4   -0.250373 
5   -0.285175 
6   -0.262816 
7   0.05506 
8   -0.544089 
9   0.145593 
10   0.118054 
11   0.154813 
12   0.121031 
13   0.127188 
14   0.143668 
15   0.124105 
16   0.122509 
17   0.148962 
18   0.120328 
19   0.130666 
20   0.124116 
21   0.12962 
22   0.095132 
23   0.29134 
 
>  <lowdin_charges> 
23 
1   -0.359626 
2   -0.276351 
3   -0.280205 
4   -0.278381 
5   -0.282437 
6   -0.285499 
7   -0.062969 
8   -0.362835 
9   0.151477 
10   0.118083 
11   0.146864 
12   0.134611 
13   0.14058 
14   0.14727 
15   0.139856 
16   0.13821 
17   0.149814 
18   0.135194 
19   0.143749 
20   0.140465 
21   0.142319 
22   0.110935 
23   0.248876 
 
$$$$ 
 
