PCCDB-ID:  11587 
public computational chemistry database (PCCDB) project, http://pccdb.org 
 
 13 12  0  0  0  0  0  0  0  0999 V2000 
    1.8409    0.1377   -1.2533 C   0  0  0  0  0  0  0  0  0  0  0  0 
    5.5459   -0.5386    1.6609 C   0  0  0  0  0  0  0  0  0  0  0  0 
    2.5793    0.2521   -0.1491 C   0  0  0  0  0  0  0  0  0  0  0  0 
    4.8117   -0.6481    0.5535 C   0  0  0  0  0  0  0  0  0  0  0  0 
    3.3195   -0.8814    0.5212 C   0  0  0  0  0  0  0  0  0  0  0  0 
    1.3351    0.9922   -1.6950 H   0  0  0  0  0  0  0  0  0  0  0  0 
    1.7085   -0.8183   -1.7567 H   0  0  0  0  0  0  0  0  0  0  0  0 
    6.6179   -0.3639    1.6223 H   0  0  0  0  0  0  0  0  0  0  0  0 
    5.1036   -0.6252    2.6517 H   0  0  0  0  0  0  0  0  0  0  0  0 
    2.6925    1.2294    0.3216 H   0  0  0  0  0  0  0  0  0  0  0  0 
    5.2920   -0.5484   -0.4207 H   0  0  0  0  0  0  0  0  0  0  0  0 
    3.1000   -1.8166   -0.0134 H   0  0  0  0  0  0  0  0  0  0  0  0 
    2.9556   -1.0066    1.5510 H   0  0  0  0  0  0  0  0  0  0  0  0 
  1  3  2  0  0  0  0 
  2  9  1  0  0  0  0 
  3 10  1  0  0  0  0 
  3  5  1  0  0  0  0 
  4  2  2  0  0  0  0 
  5  4  1  0  0  0  0 
  5 13  1  0  0  0  0 
  6  1  1  0  0  0  0 
  7  1  1  0  0  0  0 
  8  2  1  0  0  0  0 
 11  4  1  0  0  0  0 
 12  5  1  0  0  0  0 
M  END 
>  <HBA> 
0 
 
>  <HBD> 
0 
 
>  <TPSA> 
0.0 
 
>  <cid> 
11587 
 
>  <dipole> 
0.07 
 
>  <excitation_energy_1> 
6.147 
 
>  <excitation_energy_2> 
6.345 
 
>  <excitation_energy_3> 
6.536 
 
>  <excitation_energy_4> 
6.781 
 
>  <homo_energy> 
-6.789 
 
>  <homo_lumo_gap> 
6.966 
 
>  <logP> 
1.748 
 
>  <lumo_energy> 
0.177 
 
>  <melting_point> 
-67.1 
 
>  <molecular_refractivity> 
25.2 
 
>  <oscillator_strength_1> 
0.2566 
 
>  <oscillator_strength_2> 
0.0019 
 
>  <oscillator_strength_3> 
0.0417 
 
>  <oscillator_strength_4> 
0.0382 
 
>  <open_babel_can_smiles> 
C=CCC=C 
 
>  <mulliken_charges> 
13 
1   -0.339709 
2   -0.339789 
3   -0.04091 
4   -0.040839 
5   -0.350462 
6   0.140192 
7   0.135185 
8   0.140207 
9   0.135195 
10   0.131992 
11   0.131969 
12   0.148479 
13   0.148491 
 
>  <lowdin_charges> 
13 
1   -0.343067 
2   -0.339484 
3   -0.14325 
4   -0.143362 
5   -0.267378 
6   0.159933 
7   0.15373 
8   0.157139 
9   0.153147 
10   0.152438 
11   0.152397 
12   0.154363 
13   0.153395 
 
$$$$ 
 
