PCCDB-ID:  19111 
public computational chemistry database (PCCDB) project, http://pccdb.org 
 
 22 22  0  0  1  0  0  0  0  0999 V2000 
    1.3420    0.9171    0.5636 C   0  0  0  0  0  0  0  0  0  0  0  0 
    2.4773    0.8806    0.1574 C   0  0  0  0  0  0  0  0  0  0  0  0 
    4.8347    3.9399   -3.1771 C   0  0  0  0  0  0  0  0  0  0  0  0 
    5.2208    2.6225   -3.4263 C   0  0  0  0  0  0  0  0  0  0  0  0 
    4.1163    4.2466   -2.0183 C   0  0  0  0  0  0  0  0  0  0  0  0 
    4.8914    1.6130   -2.5201 C   0  0  0  0  0  0  0  0  0  0  0  0 
    3.7836    3.2390   -1.1151 C   0  0  0  0  0  0  0  0  0  0  0  0 
    4.1684    1.9154   -1.3611 C   0  0  0  0  0  0  0  0  0  0  0  0 
    3.8422    0.8136   -0.3667 C   0  0  1  0  0  0  0  0  0  0  0  0 
    5.8792    0.2189    0.7255 C   0  0  0  0  0  0  0  0  0  0  0  0 
    6.1963   -0.5425   -0.2457 N   0  0  0  0  0  0  0  0  0  0  0  0 
    6.5691    0.4989    1.8614 O   0  0  0  0  0  0  0  0  0  0  0  0 
    4.7314    0.9055    0.7922 O   0  0  0  0  0  0  0  0  0  0  0  0 
    0.3396    0.9496    0.9263 H   0  0  0  0  0  0  0  0  0  0  0  0 
    5.0884    4.7259   -3.8834 H   0  0  0  0  0  0  0  0  0  0  0  0 
    5.7759    2.3773   -4.3278 H   0  0  0  0  0  0  0  0  0  0  0  0 
    3.8145    5.2715   -1.8194 H   0  0  0  0  0  0  0  0  0  0  0  0 
    5.2064    0.5894   -2.6986 H   0  0  0  0  0  0  0  0  0  0  0  0 
    3.2134    3.4724   -0.2204 H   0  0  0  0  0  0  0  0  0  0  0  0 
    4.0160   -0.1604   -0.8326 H   0  0  0  0  0  0  0  0  0  0  0  0 
    7.1026   -0.9896   -0.1161 H   0  0  0  0  0  0  0  0  0  0  0  0 
    7.4016    0.0023    1.8434 H   0  0  0  0  0  0  0  0  0  0  0  0 
  1 14  1  0  0  0  0 
  2  1  3  0  0  0  0 
  3  5  1  0  0  0  0 
  4  3  2  0  0  0  0 
  4  6  1  0  0  0  0 
  5 17  1  0  0  0  0 
  5  7  2  0  0  0  0 
  6  8  2  0  0  0  0 
  7 19  1  0  0  0  0 
  8  7  1  0  0  0  0 
  8  9  1  0  0  0  0 
  9 20  1  6  0  0  0 
  9  2  1  0  0  0  0 
  9 13  1  0  0  0  0 
 10 13  1  0  0  0  0 
 10 12  1  0  0  0  0 
 11 21  1  0  0  0  0 
 11 10  2  0  0  0  0 
 15  3  1  0  0  0  0 
 16  4  1  0  0  0  0 
 18  6  1  0  0  0  0 
 22 12  1  0  0  0  0 
M  END 
>  <HBA> 
3 
 
>  <HBD> 
1 
 
>  <TPSA> 
52.32 
 
>  <cid> 
19111 
 
>  <dipole> 
1.58 
 
>  <excitation_energy_1> 
5.218 
 
>  <excitation_energy_2> 
5.549 
 
>  <excitation_energy_3> 
5.721 
 
>  <excitation_energy_4> 
5.895 
 
>  <homo_energy> 
-6.642 
 
>  <homo_lumo_gap> 
6.256 
 
>  <logP> 
2.156 
 
>  <lumo_energy> 
-0.386 
 
>  <melting_point> 
99.53 
 
>  <molecular_refractivity> 
48.37 
 
>  <oscillator_strength_1> 
0.0029 
 
>  <oscillator_strength_2> 
0.0939 
 
>  <oscillator_strength_3> 
0.0019 
 
>  <oscillator_strength_4> 
0.026 
 
>  <open_babel_can_smiles> 
C#C[C@@H](c1ccccc1)OC(=N)O 
 
>  <mulliken_charges> 
22 
1   -0.505718 
2   0.376106 
3   -0.123564 
4   -0.135318 
5   -0.134785 
6   -0.169596 
7   -0.160139 
8   0.151144 
9   -0.104179 
10   0.662928 
11   -0.635019 
12   -0.565608 
13   -0.445705 
14   0.198027 
15   0.130483 
16   0.131102 
17   0.132014 
18   0.154458 
19   0.145984 
20   0.209075 
21   0.279444 
22   0.408867 
 
>  <lowdin_charges> 
22 
1   -0.228899 
2   -0.038426 
3   -0.152687 
4   -0.15706 
5   -0.155238 
6   -0.15093 
7   -0.145496 
8   -0.017132 
9   0.028001 
10   0.195989 
11   -0.476187 
12   -0.357713 
13   -0.171301 
14   0.207572 
15   0.159138 
16   0.158602 
17   0.157784 
18   0.168697 
19   0.167584 
20   0.187342 
21   0.258393 
22   0.361965 
 
$$$$ 
 
