PCCDB-ID:  31497 
public computational chemistry database (PCCDB) project, http://pccdb.org 
 
 34 36  0  0  1  0  0  0  0  0999 V2000 
   -0.8467    1.2429   -0.5604 C   0  0  0  0  0  0  0  0  0  0  0  0 
    2.5208    2.7357    1.5350 C   0  0  0  0  0  0  0  0  0  0  0  0 
    2.9371    0.5051    2.3189 C   0  0  0  0  0  0  0  0  0  0  0  0 
    1.4047    2.2804    0.8259 C   0  0  0  0  0  0  0  0  0  0  0  0 
    1.8271    0.0547    1.6184 C   0  0  0  0  0  0  0  0  0  0  0  0 
    5.2062    1.4267    3.8648 C   0  0  0  0  0  0  0  0  0  0  0  0 
    4.8862    3.7012    2.8935 C   0  0  0  0  0  0  0  0  0  0  0  0 
    5.0026    1.8925    6.4256 C   0  0  0  0  0  0  0  0  0  0  0  0 
    4.8279    5.8792    4.3179 C   0  0  0  0  0  0  0  0  0  0  0  0 
    3.3309    1.8643    2.2882 C   0  0  0  0  0  0  0  0  0  0  0  0 
    1.0469    0.9326    0.8571 C   0  0  0  0  0  0  0  0  0  0  0  0 
    4.5382    1.2079    5.2140 C   0  0  2  0  0  0  0  0  0  0  0  0 
    4.1933    4.6287    3.8774 C   0  0  2  0  0  0  0  0  0  0  0  0 
    4.4791    2.3086    2.9613 N   0  0  0  0  0  0  0  0  0  0  0  0 
   -0.0276    0.3810    0.2071 O   0  0  0  0  0  0  0  0  0  0  0  0 
    5.3441    0.5182    6.1802 O   0  0  0  0  0  0  0  0  0  0  0  0 
    4.7850    4.7362    5.1823 O   0  0  0  0  0  0  0  0  0  0  0  0 
   -1.6302    0.6141   -0.9883 H   0  0  0  0  0  0  0  0  0  0  0  0 
   -0.2840    1.7213   -1.3744 H   0  0  0  0  0  0  0  0  0  0  0  0 
   -1.3093    2.0235    0.0598 H   0  0  0  0  0  0  0  0  0  0  0  0 
    2.7403    3.7957    1.4880 H   0  0  0  0  0  0  0  0  0  0  0  0 
    3.4989   -0.2195    2.8957 H   0  0  0  0  0  0  0  0  0  0  0  0 
    0.8231    3.0010    0.2616 H   0  0  0  0  0  0  0  0  0  0  0  0 
    1.5459   -0.9935    1.6539 H   0  0  0  0  0  0  0  0  0  0  0  0 
    5.3674    0.4533    3.3838 H   0  0  0  0  0  0  0  0  0  0  0  0 
    6.2011    1.8497    4.0337 H   0  0  0  0  0  0  0  0  0  0  0  0 
    5.9640    3.7549    3.0845 H   0  0  0  0  0  0  0  0  0  0  0  0 
    4.7307    4.0721    1.8725 H   0  0  0  0  0  0  0  0  0  0  0  0 
    4.3107    2.0614    7.2507 H   0  0  0  0  0  0  0  0  0  0  0  0 
    5.8218    2.6055    6.3539 H   0  0  0  0  0  0  0  0  0  0  0  0 
    4.2117    6.7239    4.6258 H   0  0  0  0  0  0  0  0  0  0  0  0 
    5.8182    6.1420    3.9433 H   0  0  0  0  0  0  0  0  0  0  0  0 
    3.4994    0.8749    5.1748 H   0  0  0  0  0  0  0  0  0  0  0  0 
    3.1040    4.5695    3.8937 H   0  0  0  0  0  0  0  0  0  0  0  0 
  1 20  1  0  0  0  0 
  1 15  1  0  0  0  0 
  2 10  2  0  0  0  0 
  3 22  1  0  0  0  0 
  4 11  2  0  0  0  0 
  4  2  1  0  0  0  0 
  5 24  1  0  0  0  0 
  5  3  2  0  0  0  0 
  6 26  1  0  0  0  0 
  6 12  1  0  0  0  0 
  7 14  1  0  0  0  0 
  7 27  1  0  0  0  0 
  7 13  1  0  0  0  0 
  8 29  1  0  0  0  0 
  9 31  1  0  0  0  0 
  9 17  1  0  0  0  0 
 10  3  1  0  0  0  0 
 10 14  1  0  0  0  0 
 11  5  1  0  0  0  0 
 12 33  1  6  0  0  0 
 12 16  1  0  0  0  0 
 12  8  1  0  0  0  0 
 13 34  1  6  0  0  0 
 13  9  1  0  0  0  0 
 13 17  1  0  0  0  0 
 14  6  1  0  0  0  0 
 15 11  1  0  0  0  0 
 16  8  1  0  0  0  0 
 18  1  1  0  0  0  0 
 19  1  1  0  0  0  0 
 21  2  1  0  0  0  0 
 23  4  1  0  0  0  0 
 25  6  1  0  0  0  0 
 28  7  1  0  0  0  0 
 30  8  1  0  0  0  0 
 32  9  1  0  0  0  0 
M  END 
>  <HBA> 
4 
 
>  <HBD> 
0 
 
>  <TPSA> 
37.53 
 
>  <cid> 
31497 
 
>  <dipole> 
4.42 
 
>  <excitation_energy_1> 
4.114 
 
>  <excitation_energy_2> 
4.314 
 
>  <excitation_energy_3> 
4.691 
 
>  <excitation_energy_4> 
4.788 
 
>  <homo_energy> 
-4.841 
 
>  <homo_lumo_gap> 
4.852 
 
>  <logP> 
1.299 
 
>  <lumo_energy> 
0.011 
 
>  <melting_point> 
43.37 
 
>  <molecular_refractivity> 
64.31 
 
>  <oscillator_strength_1> 
0.0487 
 
>  <oscillator_strength_2> 
0.0138 
 
>  <oscillator_strength_3> 
0.0153 
 
>  <oscillator_strength_4> 
0.0053 
 
>  <open_babel_can_smiles> 
COc1ccc(cc1)N(C[C@H]1OC1)C[C@H]1OC1 
 
>  <mulliken_charges> 
34 
1   -0.210306 
2   -0.206535 
3   -0.196044 
4   -0.204233 
5   -0.18293 
6   -0.179451 
7   -0.17879 
8   -0.099656 
9   -0.115924 
10   0.362001 
11   0.373607 
12   0.102787 
13   0.106449 
14   -0.493325 
15   -0.514372 
16   -0.453525 
17   -0.443671 
18   0.166491 
19   0.146421 
20   0.146064 
21   0.118641 
22   0.133167 
23   0.127086 
24   0.137586 
25   0.163901 
26   0.154124 
27   0.153445 
28   0.159665 
29   0.150009 
30   0.16135 
31   0.155694 
32   0.150405 
33   0.151924 
34   0.157945 
 
>  <lowdin_charges> 
34 
1   -0.281561 
2   -0.207336 
3   -0.199253 
4   -0.204251 
5   -0.167889 
6   -0.200392 
7   -0.200518 
8   -0.160866 
9   -0.168011 
10   0.046266 
11   0.078472 
12   -0.037459 
13   -0.032153 
14   -0.119261 
15   -0.205832 
16   -0.293499 
17   -0.289401 
18   0.162162 
19   0.142642 
20   0.142671 
21   0.152965 
22   0.163912 
23   0.161868 
24   0.165201 
25   0.154089 
26   0.157916 
27   0.155677 
28   0.155738 
29   0.15489 
30   0.158332 
31   0.15807 
32   0.152176 
33   0.150691 
34   0.153946 
 
$$$$ 
 
