PCCDB-ID:  7952 
public computational chemistry database (PCCDB) project, http://pccdb.org 
 
 24 24  0  0  0  0  0  0  0  0999 V2000 
    0.9982   -0.2814   -0.3833 C   0  0  0  0  0  0  0  0  0  0  0  0 
    3.0235   -2.4661    2.7959 C   0  0  0  0  0  0  0  0  0  0  0  0 
    1.0683    1.4214    2.5111 C   0  0  0  0  0  0  0  0  0  0  0  0 
    2.9512   -1.2529    0.7001 C   0  0  0  0  0  0  0  0  0  0  0  0 
    2.7437    1.1167    0.7010 C   0  0  0  0  0  0  0  0  0  0  0  0 
    2.9983   -0.0441    2.7623 C   0  0  0  0  0  0  0  0  0  0  0  0 
    2.4031   -0.1158   -0.0154 N   0  0  0  0  0  0  0  0  0  0  0  0 
    2.5322   -1.2813    2.1123 N   0  0  0  0  0  0  0  0  0  0  0  0 
    2.4540    1.1468    2.1376 N   0  0  0  0  0  0  0  0  0  0  0  0 
    0.9172   -1.0800   -1.1313 H   0  0  0  0  0  0  0  0  0  0  0  0 
    0.6369    0.6428   -0.8469 H   0  0  0  0  0  0  0  0  0  0  0  0 
    0.3335   -0.5343    0.4559 H   0  0  0  0  0  0  0  0  0  0  0  0 
    2.6345   -3.3651    2.3042 H   0  0  0  0  0  0  0  0  0  0  0  0 
    2.6708   -2.4673    3.8337 H   0  0  0  0  0  0  0  0  0  0  0  0 
    4.1295   -2.5407    2.8135 H   0  0  0  0  0  0  0  0  0  0  0  0 
    0.7103    2.2908    1.9493 H   0  0  0  0  0  0  0  0  0  0  0  0 
    1.0308    1.6785    3.5770 H   0  0  0  0  0  0  0  0  0  0  0  0 
    0.3747    0.5851    2.3400 H   0  0  0  0  0  0  0  0  0  0  0  0 
    4.0575   -1.2023    0.6256 H   0  0  0  0  0  0  0  0  0  0  0  0 
    2.6268   -2.1820    0.2181 H   0  0  0  0  0  0  0  0  0  0  0  0 
    2.2481    1.9630    0.2166 H   0  0  0  0  0  0  0  0  0  0  0  0 
    3.8295    1.2497    0.5970 H   0  0  0  0  0  0  0  0  0  0  0  0 
    4.1055    0.0227    2.7182 H   0  0  0  0  0  0  0  0  0  0  0  0 
    2.7078   -0.0708    3.8186 H   0  0  0  0  0  0  0  0  0  0  0  0 
  1  7  1  0  0  0  0 
  1 12  1  0  0  0  0 
  2 15  1  0  0  0  0 
  2 14  1  0  0  0  0 
  3 17  1  0  0  0  0 
  4  8  1  0  0  0  0 
  5  9  1  0  0  0  0 
  6 24  1  0  0  0  0 
  7  4  1  0  0  0  0 
  7  5  1  0  0  0  0 
  8  6  1  0  0  0  0 
  8  2  1  0  0  0  0 
  9  3  1  0  0  0  0 
  9  6  1  0  0  0  0 
 10  1  1  0  0  0  0 
 11  1  1  0  0  0  0 
 13  2  1  0  0  0  0 
 16  3  1  0  0  0  0 
 18  3  1  0  0  0  0 
 19  4  1  0  0  0  0 
 20  4  1  0  0  0  0 
 21  5  1  0  0  0  0 
 22  5  1  0  0  0  0 
 23  6  1  0  0  0  0 
M  END 
>  <HBA> 
3 
 
>  <HBD> 
0 
 
>  <TPSA> 
9.72 
 
>  <cid> 
7952 
 
>  <dipole> 
0.79 
 
>  <excitation_energy_1> 
4.907 
 
>  <excitation_energy_2> 
5.366 
 
>  <excitation_energy_3> 
5.422 
 
>  <excitation_energy_4> 
5.469 
 
>  <homo_energy> 
-5.312 
 
>  <homo_lumo_gap> 
7.461 
 
>  <logP> 
-0.518 
 
>  <lumo_energy> 
2.15 
 
>  <melting_point> 
3.92 
 
>  <molecular_refractivity> 
49.27 
 
>  <oscillator_strength_1> 
0.0024 
 
>  <oscillator_strength_2> 
0.002 
 
>  <oscillator_strength_3> 
0.0084 
 
>  <oscillator_strength_4> 
0.0231 
 
>  <open_babel_can_smiles> 
CN1CN(C)CN(C1)C 
 
>  <mulliken_charges> 
24 
1   -0.306003 
2   -0.297781 
3   -0.305882 
4   -0.007393 
5   -0.048317 
6   -0.007285 
7   -0.365221 
8   -0.383975 
9   -0.365058 
10   0.14554 
11   0.142285 
12   0.148007 
13   0.149534 
14   0.149494 
15   0.118872 
16   0.142405 
17   0.14549 
18   0.147669 
19   0.115834 
20   0.138659 
21   0.141574 
22   0.147226 
23   0.115739 
24   0.138586 
 
>  <lowdin_charges> 
24 
1   -0.360955 
2   -0.354554 
3   -0.359022 
4   -0.13782 
5   -0.146658 
6   -0.136201 
7   -0.189479 
8   -0.215826 
9   -0.189787 
10   0.146961 
11   0.148522 
12   0.135964 
13   0.151176 
14   0.149517 
15   0.118171 
16   0.148819 
17   0.144892 
18   0.135594 
19   0.115119 
20   0.145775 
21   0.148952 
22   0.142105 
23   0.114959 
24   0.143776 
 
$$$$ 
 
