PCCDB-ID:  34553 
public computational chemistry database (PCCDB) project, http://pccdb.org 
 
 36 37  0  0  0  0  0  0  0  0999 V2000 
    0.2528    0.0173    1.3840 C   0  0  0  0  0  0  0  0  0  0  0  0 
    6.0474    2.3963   -4.6445 C   0  0  0  0  0  0  0  0  0  0  0  0 
    3.3840    2.5819   -1.5827 C   0  0  0  0  0  0  0  0  0  0  0  0 
    4.6799   -2.0681    0.1837 C   0  0  0  0  0  0  0  0  0  0  0  0 
    9.4207    0.7536   -3.9349 C   0  0  0  0  0  0  0  0  0  0  0  0 
    9.1611    0.0472   -2.7563 C   0  0  0  0  0  0  0  0  0  0  0  0 
    8.4091    1.5042   -4.5335 C   0  0  0  0  0  0  0  0  0  0  0  0 
    7.8934    0.0945   -2.1905 C   0  0  0  0  0  0  0  0  0  0  0  0 
    1.9182    1.2143   -0.1014 C   0  0  0  0  0  0  0  0  0  0  0  0 
    2.4943   -0.9587    0.7325 C   0  0  0  0  0  0  0  0  0  0  0  0 
    1.5755    0.0951    0.6607 C   0  0  0  0  0  0  0  0  0  0  0  0 
    7.1251    1.5726   -3.9811 C   0  0  0  0  0  0  0  0  0  0  0  0 
    3.1217    1.3139   -0.8072 C   0  0  0  0  0  0  0  0  0  0  0  0 
    3.7159   -0.9101    0.0676 C   0  0  0  0  0  0  0  0  0  0  0  0 
    6.8726    0.8473   -2.7951 C   0  0  0  0  0  0  0  0  0  0  0  0 
    4.0323    0.2261   -0.7254 C   0  0  0  0  0  0  0  0  0  0  0  0 
    5.5568    0.9507   -2.2696 N   0  0  0  0  0  0  0  0  0  0  0  0 
    5.3059    0.1514   -1.3230 N   0  0  0  0  0  0  0  0  0  0  0  0 
   -0.2636    0.9822    1.3814 H   0  0  0  0  0  0  0  0  0  0  0  0 
    0.3844   -0.2944    2.4270 H   0  0  0  0  0  0  0  0  0  0  0  0 
   -0.4140   -0.7167    0.9126 H   0  0  0  0  0  0  0  0  0  0  0  0 
    6.4270    2.8616   -5.5597 H   0  0  0  0  0  0  0  0  0  0  0  0 
    5.6849    3.1896   -3.9817 H   0  0  0  0  0  0  0  0  0  0  0  0 
    5.1764    1.7861   -4.9066 H   0  0  0  0  0  0  0  0  0  0  0  0 
    2.6341    3.3379   -1.3251 H   0  0  0  0  0  0  0  0  0  0  0  0 
    3.3501    2.4109   -2.6629 H   0  0  0  0  0  0  0  0  0  0  0  0 
    4.3792    2.9878   -1.3752 H   0  0  0  0  0  0  0  0  0  0  0  0 
    4.2849   -2.8269    0.8668 H   0  0  0  0  0  0  0  0  0  0  0  0 
    5.6563   -1.7403    0.5541 H   0  0  0  0  0  0  0  0  0  0  0  0 
    4.8596   -2.5438   -0.7866 H   0  0  0  0  0  0  0  0  0  0  0  0 
   10.4103    0.7234   -4.3834 H   0  0  0  0  0  0  0  0  0  0  0  0 
    9.9476   -0.5332   -2.2813 H   0  0  0  0  0  0  0  0  0  0  0  0 
    8.6167    2.0539   -5.4485 H   0  0  0  0  0  0  0  0  0  0  0  0 
    7.6650   -0.4398   -1.2752 H   0  0  0  0  0  0  0  0  0  0  0  0 
    1.2226    2.0497   -0.1500 H   0  0  0  0  0  0  0  0  0  0  0  0 
    2.2543   -1.8363    1.3294 H   0  0  0  0  0  0  0  0  0  0  0  0 
  1 20  1  0  0  0  0 
  2 23  1  0  0  0  0 
  2 12  1  0  0  0  0 
  3 27  1  0  0  0  0 
  3 25  1  0  0  0  0 
  3 13  1  0  0  0  0 
  4 29  1  0  0  0  0 
  4 28  1  0  0  0  0 
  5  6  2  0  0  0  0 
  6 32  1  0  0  0  0 
  6  8  1  0  0  0  0 
  7 12  2  0  0  0  0 
  7  5  1  0  0  0  0 
  8 34  1  0  0  0  0 
  9 11  2  0  0  0  0 
 10 36  1  0  0  0  0 
 11 10  1  0  0  0  0 
 11  1  1  0  0  0  0 
 12 15  1  0  0  0  0 
 13 16  2  0  0  0  0 
 13  9  1  0  0  0  0 
 14  4  1  0  0  0  0 
 14 10  2  0  0  0  0 
 15 17  1  0  0  0  0 
 15  8  2  0  0  0  0 
 16 14  1  0  0  0  0 
 17 18  1  0  0  0  0 
 18 16  1  0  0  0  0 
 19  1  1  0  0  0  0 
 21  1  1  0  0  0  0 
 22  2  1  0  0  0  0 
 24  2  1  0  0  0  0 
 26  3  1  0  0  0  0 
 30  4  1  0  0  0  0 
 31  5  1  0  0  0  0 
 33  7  1  0  0  0  0 
 35  9  1  0  0  0  0 
M  RAD  2  17   2  18   2 
M  END 
>  <HBA> 
2 
 
>  <HBD> 
0 
 
>  <TPSA> 
24.72 
 
>  <cid> 
34553 
 
>  <dipole> 
0.61 
 
>  <excitation_energy_1> 
2.426 
 
>  <excitation_energy_2> 
3.496 
 
>  <excitation_energy_3> 
3.696 
 
>  <excitation_energy_4> 
3.889 
 
>  <homo_energy> 
-5.644 
 
>  <homo_lumo_gap> 
3.633 
 
>  <logP> 
5.336 
 
>  <lumo_energy> 
-2.011 
 
>  <melting_point> 
80.17 
 
>  <molecular_refractivity> 
76.92 
 
>  <oscillator_strength_1> 
0.0165 
 
>  <oscillator_strength_2> 
0.7425 
 
>  <oscillator_strength_3> 
0.0183 
 
>  <oscillator_strength_4> 
0.0165 
 
>  <open_babel_can_smiles> 
Cc1cc(C)c(c(c1)C)[N][N]c1ccccc1C 
 
>  <mulliken_charges> 
36 
1   -0.534606 
2   -0.517169 
3   -0.505175 
4   -0.512028 
5   -0.112458 
6   -0.150231 
7   -0.198622 
8   -0.126514 
9   -0.274526 
10   -0.261884 
11   0.217398 
12   0.156939 
13   0.199248 
14   0.165985 
15   0.218324 
16   0.169613 
17   -0.326227 
18   -0.31908 
19   0.157676 
20   0.162603 
21   0.167181 
22   0.145596 
23   0.170675 
24   0.169658 
25   0.139475 
26   0.175574 
27   0.167084 
28   0.143444 
29   0.170764 
30   0.168029 
31   0.130295 
32   0.13112 
33   0.124671 
34   0.152478 
35   0.117757 
36   0.116934 
 
>  <lowdin_charges> 
36 
1   -0.441777 
2   -0.441947 
3   -0.43841 
4   -0.440691 
5   -0.147098 
6   -0.161826 
7   -0.169531 
8   -0.151196 
9   -0.186106 
10   -0.185761 
11   0.015874 
12   0.008149 
13   0.016515 
14   0.015571 
15   -7.3e-05 
16   -0.010569 
17   -0.083643 
18   -0.078645 
19   0.157832 
20   0.160297 
21   0.164782 
22   0.152561 
23   0.167255 
24   0.166356 
25   0.147758 
26   0.166679 
27   0.165102 
28   0.151462 
29   0.165875 
30   0.165292 
31   0.157988 
32   0.159177 
33   0.155656 
34   0.17092 
35   0.152898 
36   0.153273 
 
$$$$ 
 
