PCCDB-ID:  34704 
public computational chemistry database (PCCDB) project, http://pccdb.org 
 
 35 34  0  0  0  0  0  0  0  0999 V2000 
    1.9471   -4.1977    0.6252 C   0  0  0  0  0  0  0  0  0  0  0  0 
    3.4173   -3.8465    0.8753 C   0  0  0  0  0  0  0  0  0  0  0  0 
    3.6056   -2.7296    1.9102 C   0  0  0  0  0  0  0  0  0  0  0  0 
    5.0750   -2.3768    2.1735 C   0  0  0  0  0  0  0  0  0  0  0  0 
    5.2615   -1.2440    3.1914 C   0  0  0  0  0  0  0  0  0  0  0  0 
    6.7314   -0.8970    3.4610 C   0  0  0  0  0  0  0  0  0  0  0  0 
    6.9168    0.2401    4.4740 C   0  0  0  0  0  0  0  0  0  0  0  0 
    8.3873    0.5803    4.7493 C   0  0  0  0  0  0  0  0  0  0  0  0 
    8.5655    1.7192    5.7617 C   0  0  0  0  0  0  0  0  0  0  0  0 
   10.0309    2.0513    6.0184 C   0  0  0  0  0  0  0  0  0  0  0  0 
   11.4433    3.4617    7.2213 N   0  0  0  0  0  0  0  0  0  0  0  0 
   10.0652    3.1156    6.9654 O   0  0  0  0  0  0  0  0  0  0  0  0 
    1.8463   -4.9977   -0.1172 H   0  0  0  0  0  0  0  0  0  0  0  0 
    1.3893   -3.3282    0.2559 H   0  0  0  0  0  0  0  0  0  0  0  0 
    1.4577   -4.5354    1.5473 H   0  0  0  0  0  0  0  0  0  0  0  0 
    3.8877   -3.5451   -0.0715 H   0  0  0  0  0  0  0  0  0  0  0  0 
    3.9569   -4.7441    1.2094 H   0  0  0  0  0  0  0  0  0  0  0  0 
    3.1278   -3.0284    2.8553 H   0  0  0  0  0  0  0  0  0  0  0  0 
    3.0703   -1.8294    1.5725 H   0  0  0  0  0  0  0  0  0  0  0  0 
    5.5561   -2.0945    1.2251 H   0  0  0  0  0  0  0  0  0  0  0  0 
    5.6060   -3.2734    2.5268 H   0  0  0  0  0  0  0  0  0  0  0  0 
    4.7746   -1.5229    4.1378 H   0  0  0  0  0  0  0  0  0  0  0  0 
    4.7363   -0.3455    2.8345 H   0  0  0  0  0  0  0  0  0  0  0  0 
    7.2188   -0.6216    2.5138 H   0  0  0  0  0  0  0  0  0  0  0  0 
    7.2562   -1.7942    3.8216 H   0  0  0  0  0  0  0  0  0  0  0  0 
    6.4241   -0.0312    5.4194 H   0  0  0  0  0  0  0  0  0  0  0  0 
    6.3990    1.1397    4.1098 H   0  0  0  0  0  0  0  0  0  0  0  0 
    8.8794    0.8512    3.8035 H   0  0  0  0  0  0  0  0  0  0  0  0 
    8.9048   -0.3191    5.1143 H   0  0  0  0  0  0  0  0  0  0  0  0 
    8.0917    1.4514    6.7154 H   0  0  0  0  0  0  0  0  0  0  0  0 
    8.0565    2.6237    5.4029 H   0  0  0  0  0  0  0  0  0  0  0  0 
   10.5354    2.3564    5.0894 H   0  0  0  0  0  0  0  0  0  0  0  0 
   10.5699    1.1765    6.4127 H   0  0  0  0  0  0  0  0  0  0  0  0 
   11.5201    3.3731    8.2376 H   0  0  0  0  0  0  0  0  0  0  0  0 
   11.4656    4.4683    7.0412 H   0  0  0  0  0  0  0  0  0  0  0  0 
  1  2  1  0  0  0  0 
  1 15  1  0  0  0  0 
  2 17  1  0  0  0  0 
  2  3  1  0  0  0  0 
  3  4  1  0  0  0  0 
  3 18  1  0  0  0  0 
  4 21  1  0  0  0  0 
  4  5  1  0  0  0  0 
  5  6  1  0  0  0  0 
  5 22  1  0  0  0  0 
  6 25  1  0  0  0  0 
  6  7  1  0  0  0  0 
  7  8  1  0  0  0  0 
  7 26  1  0  0  0  0 
  8 29  1  0  0  0  0 
  8  9  1  0  0  0  0 
  9 10  1  0  0  0  0 
  9 30  1  0  0  0  0 
 10 33  1  0  0  0  0 
 10 12  1  0  0  0  0 
 11 34  1  0  0  0  0 
 12 11  1  0  0  0  0 
 13  1  1  0  0  0  0 
 14  1  1  0  0  0  0 
 16  2  1  0  0  0  0 
 19  3  1  0  0  0  0 
 20  4  1  0  0  0  0 
 23  5  1  0  0  0  0 
 24  6  1  0  0  0  0 
 27  7  1  0  0  0  0 
 28  8  1  0  0  0  0 
 31  9  1  0  0  0  0 
 32 10  1  0  0  0  0 
 35 11  1  0  0  0  0 
M  END 
>  <HBA> 
2 
 
>  <HBD> 
1 
 
>  <TPSA> 
35.25 
 
>  <cid> 
34704 
 
>  <dipole> 
0.45 
 
>  <excitation_energy_1> 
6.283 
 
>  <excitation_energy_2> 
6.443 
 
>  <excitation_energy_3> 
7.11 
 
>  <excitation_energy_4> 
7.148 
 
>  <homo_energy> 
-6.811 
 
>  <homo_lumo_gap> 
9.094 
 
>  <logP> 
3.718 
 
>  <lumo_energy> 
2.283 
 
>  <melting_point> 
18.43 
 
>  <molecular_refractivity> 
53.98 
 
>  <oscillator_strength_1> 
0.0274 
 
>  <oscillator_strength_2> 
0.0065 
 
>  <oscillator_strength_3> 
0.0104 
 
>  <oscillator_strength_4> 
0.0232 
 
>  <open_babel_can_smiles> 
CCCCCCCCCCON 
 
>  <mulliken_charges> 
35 
1   -0.441436 
2   -0.246395 
3   -0.245476 
4   -0.252239 
5   -0.252792 
6   -0.252908 
7   -0.250944 
8   -0.2604 
9   -0.279643 
10   0.032864 
11   -0.475662 
12   -0.435153 
13   0.140991 
14   0.140899 
15   0.140872 
16   0.129574 
17   0.129556 
18   0.12597 
19   0.125947 
20   0.126293 
21   0.126386 
22   0.126733 
23   0.126766 
24   0.126818 
25   0.126802 
26   0.128427 
27   0.128486 
28   0.129999 
29   0.130043 
30   0.141087 
31   0.141119 
32   0.121453 
33   0.120501 
34   0.312524 
35   0.312936 
 
>  <lowdin_charges> 
35 
1   -0.446222 
2   -0.272674 
3   -0.275132 
4   -0.274861 
5   -0.274583 
6   -0.274843 
7   -0.27358 
8   -0.273826 
9   -0.282991 
10   -0.130282 
11   -0.398055 
12   -0.257066 
13   0.149369 
14   0.146705 
15   0.146315 
16   0.138519 
17   0.138939 
18   0.137072 
19   0.137446 
20   0.137238 
21   0.13777 
22   0.137463 
23   0.137928 
24   0.137487 
25   0.137935 
26   0.138406 
27   0.138883 
28   0.13886 
29   0.139329 
30   0.146002 
31   0.146503 
32   0.129024 
33   0.128991 
34   0.253746 
35   0.254183 
 
$$$$ 
 
