PCCDB-ID:  29116 
public computational chemistry database (PCCDB) project, http://pccdb.org 
 
 28 27  0  0  0  0  0  0  0  0999 V2000 
    3.7186    2.5758   -1.3496 C   0  0  0  0  0  0  0  0  0  0  0  0 
    5.0292    0.2611    5.5694 C   0  0  0  0  0  0  0  0  0  0  0  0 
    5.6999   -2.1328    5.0642 C   0  0  0  0  0  0  0  0  0  0  0  0 
    4.6775    1.4669   -0.9047 C   0  0  0  0  0  0  0  0  0  0  0  0 
    4.5228    1.0936    0.5749 C   0  0  0  0  0  0  0  0  0  0  0  0 
    5.4870   -0.0198    1.0268 C   0  0  0  0  0  0  0  0  0  0  0  0 
    5.3022   -0.4103    2.4686 C   0  0  0  0  0  0  0  0  0  0  0  0 
    6.2307   -0.2861    3.4192 C   0  0  0  0  0  0  0  0  0  0  0  0 
    6.0658   -0.6491    4.8860 C   0  0  0  0  0  0  0  0  0  0  0  0 
    7.3638   -0.4073    5.4608 O   0  0  0  0  0  0  0  0  0  0  0  0 
    3.8532    2.8201   -2.4095 H   0  0  0  0  0  0  0  0  0  0  0  0 
    3.8803    3.4947   -0.7727 H   0  0  0  0  0  0  0  0  0  0  0  0 
    2.6728    2.2767   -1.2069 H   0  0  0  0  0  0  0  0  0  0  0  0 
    4.0378    0.1445    5.1186 H   0  0  0  0  0  0  0  0  0  0  0  0 
    5.3307    1.3088    5.4767 H   0  0  0  0  0  0  0  0  0  0  0  0 
    4.9446    0.0168    6.6373 H   0  0  0  0  0  0  0  0  0  0  0  0 
    4.7404   -2.3691    4.5917 H   0  0  0  0  0  0  0  0  0  0  0  0 
    5.6184   -2.3840    6.1307 H   0  0  0  0  0  0  0  0  0  0  0  0 
    6.4717   -2.7656    4.6163 H   0  0  0  0  0  0  0  0  0  0  0  0 
    5.7138    1.7821   -1.0922 H   0  0  0  0  0  0  0  0  0  0  0  0 
    4.5155    0.5723   -1.5230 H   0  0  0  0  0  0  0  0  0  0  0  0 
    3.4864    0.7759    0.7629 H   0  0  0  0  0  0  0  0  0  0  0  0 
    4.6869    1.9832    1.1990 H   0  0  0  0  0  0  0  0  0  0  0  0 
    6.5242    0.3012    0.8624 H   0  0  0  0  0  0  0  0  0  0  0  0 
    5.3280   -0.9008    0.3850 H   0  0  0  0  0  0  0  0  0  0  0  0 
    4.3163   -0.8051    2.7264 H   0  0  0  0  0  0  0  0  0  0  0  0 
    7.2138    0.1119    3.1699 H   0  0  0  0  0  0  0  0  0  0  0  0 
    7.3032   -0.6246    6.4046 H   0  0  0  0  0  0  0  0  0  0  0  0 
  1 13  1  0  0  0  0 
  1  4  1  0  0  0  0 
  1 12  1  0  0  0  0 
  2 16  1  0  0  0  0 
  3 18  1  0  0  0  0 
  4  5  1  0  0  0  0 
  5 22  1  0  0  0  0 
  5  6  1  0  0  0  0 
  5 23  1  0  0  0  0 
  6  7  1  0  0  0  0 
  7 26  1  0  0  0  0 
  7  8  2  0  0  0  0 
  8  9  1  0  0  0  0 
  9  3  1  0  0  0  0 
  9 10  1  0  0  0  0 
  9  2  1  0  0  0  0 
 10 28  1  0  0  0  0 
 11  1  1  0  0  0  0 
 14  2  1  0  0  0  0 
 15  2  1  0  0  0  0 
 17  3  1  0  0  0  0 
 19  3  1  0  0  0  0 
 20  4  1  0  0  0  0 
 21  4  1  0  0  0  0 
 24  6  1  0  0  0  0 
 25  6  1  0  0  0  0 
 27  8  1  0  0  0  0 
M  END 
>  <HBA> 
1 
 
>  <HBD> 
1 
 
>  <TPSA> 
20.23 
 
>  <cid> 
29116 
 
>  <dipole> 
1.4 
 
>  <excitation_energy_1> 
5.862 
 
>  <excitation_energy_2> 
6.371 
 
>  <excitation_energy_3> 
6.507 
 
>  <excitation_energy_4> 
6.559 
 
>  <homo_energy> 
-6.408 
 
>  <homo_lumo_gap> 
7.119 
 
>  <logP> 
2.504 
 
>  <lumo_energy> 
0.71 
 
>  <melting_point> 
10.88 
 
>  <molecular_refractivity> 
46.1 
 
>  <oscillator_strength_1> 
0.0242 
 
>  <oscillator_strength_2> 
0.0336 
 
>  <oscillator_strength_3> 
0.0808 
 
>  <oscillator_strength_4> 
0.1345 
 
>  <open_babel_can_smiles> 
CCCC/C=C/C(O)(C)C 
 
>  <mulliken_charges> 
28 
1   -0.441596 
2   -0.446625 
3   -0.448727 
4   -0.246946 
5   -0.24631 
6   -0.302637 
7   -0.088758 
8   -0.130175 
9   0.289018 
10   -0.650517 
11   0.142084 
12   0.142546 
13   0.140945 
14   0.1428 
15   0.158492 
16   0.124884 
17   0.142467 
18   0.12493 
19   0.159819 
20   0.13205 
21   0.130053 
22   0.12645 
23   0.135717 
24   0.13837 
25   0.136556 
26   0.112912 
27   0.139653 
28   0.382544 
 
>  <lowdin_charges> 
28 
1   -0.44155 
2   -0.449089 
3   -0.452267 
4   -0.271821 
5   -0.273074 
6   -0.267847 
7   -0.163797 
8   -0.171229 
9   0.127063 
10   -0.46313 
11   0.148025 
12   0.146975 
13   0.144765 
14   0.152043 
15   0.157556 
16   0.13879 
17   0.151973 
18   0.139201 
19   0.160648 
20   0.138555 
21   0.138978 
22   0.136097 
23   0.142304 
24   0.144857 
25   0.145678 
26   0.142073 
27   0.161835 
28   0.336389 
 
$$$$ 
 
