PCCDB-ID:  6923 
public computational chemistry database (PCCDB) project, http://pccdb.org 
 
 25 25  0  0  0  0  0  0  0  0999 V2000 
    0.9551   -0.4334   -0.1307 C   0  0  0  0  0  0  0  0  0  0  0  0 
    2.7316    0.4526    1.3755 C   0  0  0  0  0  0  0  0  0  0  0  0 
    3.2814   -1.4425   -0.1443 C   0  0  0  0  0  0  0  0  0  0  0  0 
    3.8120    3.0205   -1.8520 C   0  0  0  0  0  0  0  0  0  0  0  0 
    3.6595    2.6771   -3.1912 C   0  0  0  0  0  0  0  0  0  0  0  0 
    3.4283    2.1146   -0.8599 C   0  0  0  0  0  0  0  0  0  0  0  0 
    3.1252    1.4323   -3.5163 C   0  0  0  0  0  0  0  0  0  0  0  0 
    2.8874    0.8527   -1.1438 C   0  0  0  0  0  0  0  0  0  0  0  0 
    2.7451    0.5345   -2.5147 C   0  0  0  0  0  0  0  0  0  0  0  0 
    2.4701   -0.1283   -0.0287 C   0  0  0  0  0  0  0  0  0  0  0  0 
    2.2190   -0.6893   -2.8603 O   0  0  0  0  0  0  0  0  0  0  0  0 
    0.6593   -1.1290    0.6646 H   0  0  0  0  0  0  0  0  0  0  0  0 
    0.6972   -0.8833   -1.0914 H   0  0  0  0  0  0  0  0  0  0  0  0 
    0.3672    0.4843   -0.0107 H   0  0  0  0  0  0  0  0  0  0  0  0 
    2.4201   -0.2775    2.1309 H   0  0  0  0  0  0  0  0  0  0  0  0 
    2.1639    1.3730    1.5547 H   0  0  0  0  0  0  0  0  0  0  0  0 
    3.7938    0.6653    1.5424 H   0  0  0  0  0  0  0  0  0  0  0  0 
    2.9901   -2.1330    0.6571 H   0  0  0  0  0  0  0  0  0  0  0  0 
    4.3551   -1.2443   -0.0430 H   0  0  0  0  0  0  0  0  0  0  0  0 
    3.1133   -1.9397   -1.1015 H   0  0  0  0  0  0  0  0  0  0  0  0 
    4.2260    3.9849   -1.5719 H   0  0  0  0  0  0  0  0  0  0  0  0 
    3.9499    3.3643   -3.9811 H   0  0  0  0  0  0  0  0  0  0  0  0 
    3.5597    2.4091    0.1746 H   0  0  0  0  0  0  0  0  0  0  0  0 
    2.9987    1.1458   -4.5599 H   0  0  0  0  0  0  0  0  0  0  0  0 
    2.1873   -0.7463   -3.8280 H   0  0  0  0  0  0  0  0  0  0  0  0 
  1 10  1  0  0  0  0 
  1 14  1  0  0  0  0 
  1 12  1  0  0  0  0 
  2 17  1  0  0  0  0 
  2 16  1  0  0  0  0 
  2 15  1  0  0  0  0 
  3 19  1  0  0  0  0 
  3 10  1  0  0  0  0 
  3 18  1  0  0  0  0 
  4 21  1  0  0  0  0 
  4  6  2  0  0  0  0 
  5  4  1  0  0  0  0 
  6 23  1  0  0  0  0 
  7  5  2  0  0  0  0 
  7  9  1  0  0  0  0 
  8  6  1  0  0  0  0 
  8 10  1  0  0  0  0 
  9  8  2  0  0  0  0 
 10  2  1  0  0  0  0 
 11  9  1  0  0  0  0 
 13  1  1  0  0  0  0 
 20  3  1  0  0  0  0 
 22  5  1  0  0  0  0 
 24  7  1  0  0  0  0 
 25 11  1  0  0  0  0 
M  END 
>  <HBA> 
1 
 
>  <HBD> 
1 
 
>  <TPSA> 
20.23 
 
>  <cid> 
6923 
 
>  <dipole> 
1.34 
 
>  <excitation_energy_1> 
5.043 
 
>  <excitation_energy_2> 
5.133 
 
>  <excitation_energy_3> 
5.731 
 
>  <excitation_energy_4> 
5.745 
 
>  <homo_energy> 
-5.859 
 
>  <homo_lumo_gap> 
5.984 
 
>  <logP> 
2.69 
 
>  <lumo_energy> 
0.125 
 
>  <melting_point> 
53.08 
 
>  <molecular_refractivity> 
47.73 
 
>  <oscillator_strength_1> 
0.0448 
 
>  <oscillator_strength_2> 
0.0 
 
>  <oscillator_strength_3> 
0.0186 
 
>  <oscillator_strength_4> 
0.0029 
 
>  <open_babel_can_smiles> 
Oc1ccccc1C(C)(C)C 
 
>  <mulliken_charges> 
25 
1   -0.450299 
2   -0.456926 
3   -0.450693 
4   -0.131739 
5   -0.135738 
6   -0.208257 
7   -0.190713 
8   0.140519 
9   0.29196 
10   0.033832 
11   -0.64515 
12   0.131745 
13   0.169393 
14   0.137716 
15   0.14068 
16   0.142926 
17   0.142989 
18   0.131647 
19   0.137697 
20   0.169752 
21   0.123262 
22   0.127646 
23   0.128257 
24   0.112669 
25   0.406825 
 
>  <lowdin_charges> 
25 
1   -0.447302 
2   -0.443426 
3   -0.445286 
4   -0.178328 
5   -0.152415 
6   -0.15999 
7   -0.212359 
8   -0.028184 
9   0.098635 
10   0.02233 
11   -0.379171 
12   0.144772 
13   0.160662 
14   0.14691 
15   0.151284 
16   0.147703 
17   0.146225 
18   0.144674 
19   0.14497 
20   0.16079 
21   0.155653 
22   0.158621 
23   0.160423 
24   0.149015 
25   0.353794 
 
$$$$ 
 
