PCCDB-ID:  22468 
public computational chemistry database (PCCDB) project, http://pccdb.org 
 
 21 20  0  0  0  0  0  0  0  0999 V2000 
    1.1359   -0.0159   -0.1423 C   0  0  0  0  0  0  0  0  0  0  0  0 
    3.7704   -4.7325   -0.0549 C   0  0  0  0  0  0  0  0  0  0  0  0 
    6.1316   -4.0894   -0.4836 C   0  0  0  0  0  0  0  0  0  0  0  0 
    2.6066   -0.4032   -0.3261 C   0  0  0  0  0  0  0  0  0  0  0  0 
    2.8494   -1.9143   -0.2144 C   0  0  0  0  0  0  0  0  0  0  0  0 
    4.3205   -2.2983   -0.3979 C   0  0  0  0  0  0  0  0  0  0  0  0 
    4.6676   -3.7703   -0.2933 C   0  0  0  0  0  0  0  0  0  0  0  0 
    0.9936    1.0673   -0.2289 H   0  0  0  0  0  0  0  0  0  0  0  0 
    0.7654   -0.3229    0.8436 H   0  0  0  0  0  0  0  0  0  0  0  0 
    0.5021   -0.4967   -0.8976 H   0  0  0  0  0  0  0  0  0  0  0  0 
    4.0683   -5.7761    0.0096 H   0  0  0  0  0  0  0  0  0  0  0  0 
    2.7141   -4.5254    0.0854 H   0  0  0  0  0  0  0  0  0  0  0  0 
    6.3270   -5.1632   -0.4045 H   0  0  0  0  0  0  0  0  0  0  0  0 
    6.7497   -3.5745    0.2650 H   0  0  0  0  0  0  0  0  0  0  0  0 
    6.4869   -3.7501   -1.4666 H   0  0  0  0  0  0  0  0  0  0  0  0 
    3.2189    0.1198    0.4224 H   0  0  0  0  0  0  0  0  0  0  0  0 
    2.9580   -0.0497   -1.3060 H   0  0  0  0  0  0  0  0  0  0  0  0 
    2.2381   -2.4349   -0.9647 H   0  0  0  0  0  0  0  0  0  0  0  0 
    2.4976   -2.2655    0.7657 H   0  0  0  0  0  0  0  0  0  0  0  0 
    4.9313   -1.7478    0.3362 H   0  0  0  0  0  0  0  0  0  0  0  0 
    4.6687   -1.9333   -1.3781 H   0  0  0  0  0  0  0  0  0  0  0  0 
  1  9  1  0  0  0  0 
  2 11  1  0  0  0  0 
  2 12  1  0  0  0  0 
  3 13  1  0  0  0  0 
  3  7  1  0  0  0  0 
  3 14  1  0  0  0  0 
  4  5  1  0  0  0  0 
  4  1  1  0  0  0  0 
  4 16  1  0  0  0  0 
  5 19  1  0  0  0  0 
  6  7  1  0  0  0  0 
  6  5  1  0  0  0  0 
  6 20  1  0  0  0  0 
  7  2  2  0  0  0  0 
  8  1  1  0  0  0  0 
 10  1  1  0  0  0  0 
 15  3  1  0  0  0  0 
 17  4  1  0  0  0  0 
 18  5  1  0  0  0  0 
 21  6  1  0  0  0  0 
M  END 
>  <HBA> 
0 
 
>  <HBD> 
0 
 
>  <TPSA> 
0.0 
 
>  <cid> 
22468 
 
>  <dipole> 
0.53 
 
>  <excitation_energy_1> 
6.224 
 
>  <excitation_energy_2> 
6.519 
 
>  <excitation_energy_3> 
6.576 
 
>  <excitation_energy_4> 
6.713 
 
>  <homo_energy> 
-6.495 
 
>  <homo_lumo_gap> 
7.377 
 
>  <logP> 
2.753 
 
>  <lumo_energy> 
0.882 
 
>  <melting_point> 
-44.41 
 
>  <molecular_refractivity> 
35.29 
 
>  <oscillator_strength_1> 
0.005 
 
>  <oscillator_strength_2> 
0.2037 
 
>  <oscillator_strength_3> 
0.0149 
 
>  <oscillator_strength_4> 
0.0034 
 
>  <open_babel_can_smiles> 
CCCCC(=C)C 
 
>  <mulliken_charges> 
21 
1   -0.441675 
2   -0.401318 
3   -0.508602 
4   -0.248357 
5   -0.255813 
6   -0.316634 
7   0.222088 
8   0.141802 
9   0.141857 
10   0.141862 
11   0.126882 
12   0.135189 
13   0.151611 
14   0.150855 
15   0.150695 
16   0.130245 
17   0.130227 
18   0.135933 
19   0.13594 
20   0.138555 
21   0.138656 
 
>  <lowdin_charges> 
21 
1   -0.443386 
2   -0.368977 
3   -0.440549 
4   -0.272572 
5   -0.276379 
6   -0.2753 
7   0.007853 
8   0.147569 
9   0.146226 
10   0.147752 
11   0.151722 
12   0.154436 
13   0.154269 
14   0.155203 
15   0.153626 
16   0.140006 
17   0.138444 
18   0.14329 
19   0.141703 
20   0.14826 
21   0.146804 
 
$$$$ 
 
