PCCDB-ID:  26289 
public computational chemistry database (PCCDB) project, http://pccdb.org 
 
 22 22  0  0  0  0  0  0  0  0999 V2000 
    2.6326    0.2500   -1.4641 C   0  0  0  0  0  0  0  0  0  0  0  0 
    0.9528    0.2265    0.4434 C   0  0  0  0  0  0  0  0  0  0  0  0 
    4.3981   -2.8503    1.6919 C   0  0  0  0  0  0  0  0  0  0  0  0 
    2.7020   -3.8368    0.2659 C   0  0  0  0  0  0  0  0  0  0  0  0 
    3.9540   -1.5837    1.3230 C   0  0  0  0  0  0  0  0  0  0  0  0 
    2.2729   -2.5639   -0.0913 C   0  0  0  0  0  0  0  0  0  0  0  0 
    4.2182   -5.2999    1.5389 C   0  0  0  0  0  0  0  0  0  0  0  0 
    2.4185   -0.0194    0.0382 C   0  0  0  0  0  0  0  0  0  0  0  0 
    3.7719   -3.9901    1.1643 C   0  0  0  0  0  0  0  0  0  0  0  0 
    2.8877   -1.4135    0.4293 C   0  0  0  0  0  0  0  0  0  0  0  0 
    4.5800   -6.3632    1.8429 N   0  0  0  0  0  0  0  0  0  0  0  0 
    2.3436    1.2773   -1.7141 H   0  0  0  0  0  0  0  0  0  0  0  0 
    2.0266   -0.4251   -2.0798 H   0  0  0  0  0  0  0  0  0  0  0  0 
    3.6812    0.1105   -1.7482 H   0  0  0  0  0  0  0  0  0  0  0  0 
    0.6578    1.2549    0.2051 H   0  0  0  0  0  0  0  0  0  0  0  0 
    0.8043    0.0678    1.5168 H   0  0  0  0  0  0  0  0  0  0  0  0 
    0.2722   -0.4457   -0.0923 H   0  0  0  0  0  0  0  0  0  0  0  0 
    5.2247   -2.9640    2.3860 H   0  0  0  0  0  0  0  0  0  0  0  0 
    2.2173   -4.7168   -0.1450 H   0  0  0  0  0  0  0  0  0  0  0  0 
    4.4467   -0.7076    1.7375 H   0  0  0  0  0  0  0  0  0  0  0  0 
    1.4450   -2.4658   -0.7882 H   0  0  0  0  0  0  0  0  0  0  0  0 
    3.0396    0.6960    0.5936 H   0  0  0  0  0  0  0  0  0  0  0  0 
  1  8  1  0  0  0  0 
  2 16  1  0  0  0  0 
  3 18  1  0  0  0  0 
  4  9  1  0  0  0  0 
  5  3  1  0  0  0  0 
  5 20  1  0  0  0  0 
  6  4  2  0  0  0  0 
  6 10  1  0  0  0  0 
  7 11  3  0  0  0  0 
  8 10  1  0  0  0  0 
  8  2  1  0  0  0  0 
  8 22  1  0  0  0  0 
  9  7  1  0  0  0  0 
  9  3  2  0  0  0  0 
 10  5  2  0  0  0  0 
 12  1  1  0  0  0  0 
 13  1  1  0  0  0  0 
 14  1  1  0  0  0  0 
 15  2  1  0  0  0  0 
 17  2  1  0  0  0  0 
 19  4  1  0  0  0  0 
 21  6  1  0  0  0  0 
M  END 
>  <HBA> 
1 
 
>  <HBD> 
0 
 
>  <TPSA> 
23.79 
 
>  <cid> 
26289 
 
>  <dipole> 
5.21 
 
>  <excitation_energy_1> 
5.035 
 
>  <excitation_energy_2> 
5.35 
 
>  <excitation_energy_3> 
6.256 
 
>  <excitation_energy_4> 
6.287 
 
>  <homo_energy> 
-6.958 
 
>  <homo_lumo_gap> 
5.682 
 
>  <logP> 
2.682 
 
>  <lumo_energy> 
-1.276 
 
>  <melting_point> 
44.56 
 
>  <molecular_refractivity> 
45.74 
 
>  <oscillator_strength_1> 
0.0031 
 
>  <oscillator_strength_2> 
0.362 
 
>  <oscillator_strength_3> 
0.0059 
 
>  <oscillator_strength_4> 
0.0004 
 
>  <open_babel_can_smiles> 
N#Cc1ccc(cc1)C(C)C 
 
>  <mulliken_charges> 
22 
1   -0.440767 
2   -0.441508 
3   -0.131285 
4   -0.135472 
5   -0.202239 
6   -0.189421 
7   0.236117 
8   -0.166105 
9   0.124076 
10   0.199392 
11   -0.479992 
12   0.148681 
13   0.146628 
14   0.15389 
15   0.1487 
16   0.154185 
17   0.146504 
18   0.157625 
19   0.157418 
20   0.138705 
21   0.139835 
22   0.135033 
 
>  <lowdin_charges> 
22 
1   -0.440574 
2   -0.440125 
3   -0.13048 
4   -0.132176 
5   -0.165162 
6   -0.158314 
7   -0.014019 
8   -0.120494 
9   -0.025875 
10   0.01808 
11   -0.122516 
12   0.151773 
13   0.150659 
14   0.153834 
15   0.151898 
16   0.153494 
17   0.150428 
18   0.173667 
19   0.173899 
20   0.163043 
21   0.162562 
22   0.146397 
 
$$$$ 
 
