PCCDB-ID:  22121 
public computational chemistry database (PCCDB) project, http://pccdb.org 
 
 24 25  0  0  0  0  0  0  0  0999 V2000 
    3.3902   -0.0568    1.3586 C   0  0  0  0  0  0  0  0  0  0  0  0 
    1.0780    0.0641    0.2988 C   0  0  0  0  0  0  0  0  0  0  0  0 
    4.3411    4.9668   -3.0642 C   0  0  0  0  0  0  0  0  0  0  0  0 
    3.8106    5.6893   -1.9773 C   0  0  0  0  0  0  0  0  0  0  0  0 
    4.3101    3.5755   -3.0936 C   0  0  0  0  0  0  0  0  0  0  0  0 
    3.2340    5.0430   -0.8856 C   0  0  0  0  0  0  0  0  0  0  0  0 
    2.5964    0.1595    0.0548 C   0  0  0  0  0  0  0  0  0  0  0  0 
    3.7353    2.9050   -2.0075 C   0  0  0  0  0  0  0  0  0  0  0  0 
    3.2082    3.6483   -0.9238 C   0  0  0  0  0  0  0  0  0  0  0  0 
    2.9768    1.4492   -0.6194 C   0  0  0  0  0  0  0  0  0  0  0  0 
    3.5742    1.5428   -1.7841 N   0  0  0  0  0  0  0  0  0  0  0  0 
    2.7305    2.6865   -0.0494 N   0  0  0  0  0  0  0  0  0  0  0  0 
    3.1528   -1.0351    1.7915 H   0  0  0  0  0  0  0  0  0  0  0  0 
    3.1454    0.7043    2.1106 H   0  0  0  0  0  0  0  0  0  0  0  0 
    4.4687   -0.0146    1.1759 H   0  0  0  0  0  0  0  0  0  0  0  0 
    0.8202   -0.9161    0.7151 H   0  0  0  0  0  0  0  0  0  0  0  0 
    0.5171    0.1998   -0.6316 H   0  0  0  0  0  0  0  0  0  0  0  0 
    0.7345    0.8229    1.0139 H   0  0  0  0  0  0  0  0  0  0  0  0 
    4.7812    5.5104   -3.8956 H   0  0  0  0  0  0  0  0  0  0  0  0 
    3.8536    6.7750   -1.9879 H   0  0  0  0  0  0  0  0  0  0  0  0 
    4.7174    3.0139   -3.9288 H   0  0  0  0  0  0  0  0  0  0  0  0 
    2.8266    5.6042   -0.0490 H   0  0  0  0  0  0  0  0  0  0  0  0 
    2.8834   -0.6212   -0.6575 H   0  0  0  0  0  0  0  0  0  0  0  0 
    2.2783    2.8552    0.8366 H   0  0  0  0  0  0  0  0  0  0  0  0 
  1 13  1  0  0  0  0 
  1 14  1  0  0  0  0 
  2 16  1  0  0  0  0 
  2 18  1  0  0  0  0 
  3  4  1  0  0  0  0 
  4  6  2  0  0  0  0 
  5  3  2  0  0  0  0 
  5  8  1  0  0  0  0 
  6 22  1  0  0  0  0 
  7  2  1  0  0  0  0 
  7  1  1  0  0  0  0 
  8 11  1  0  0  0  0 
  8  9  2  0  0  0  0 
  9  6  1  0  0  0  0 
  9 12  1  0  0  0  0 
 10 12  1  0  0  0  0 
 10  7  1  0  0  0  0 
 11 10  2  0  0  0  0 
 12 24  1  0  0  0  0 
 15  1  1  0  0  0  0 
 17  2  1  0  0  0  0 
 19  3  1  0  0  0  0 
 20  4  1  0  0  0  0 
 21  5  1  0  0  0  0 
 23  7  1  0  0  0  0 
M  END 
>  <HBA> 
1 
 
>  <HBD> 
1 
 
>  <TPSA> 
28.68 
 
>  <cid> 
22121 
 
>  <dipole> 
3.41 
 
>  <excitation_energy_1> 
4.945 
 
>  <excitation_energy_2> 
5.187 
 
>  <excitation_energy_3> 
5.214 
 
>  <excitation_energy_4> 
5.315 
 
>  <homo_energy> 
-5.864 
 
>  <homo_lumo_gap> 
5.657 
 
>  <logP> 
2.686 
 
>  <lumo_energy> 
-0.207 
 
>  <melting_point> 
113.94 
 
>  <molecular_refractivity> 
50.67 
 
>  <oscillator_strength_1> 
0.0922 
 
>  <oscillator_strength_2> 
0.1228 
 
>  <oscillator_strength_3> 
0.0019 
 
>  <oscillator_strength_4> 
0.0 
 
>  <open_babel_can_smiles> 
CC(c1nc2c([nH]1)cccc2)C 
 
>  <mulliken_charges> 
24 
1   -0.445713 
2   -0.447524 
3   -0.143112 
4   -0.150233 
5   -0.183219 
6   -0.173772 
7   -0.159398 
8   0.227831 
9   0.349797 
10   0.514473 
11   -0.547945 
12   -0.739936 
13   0.151604 
14   0.131406 
15   0.165779 
16   0.152626 
17   0.164982 
18   0.129893 
19   0.123269 
20   0.124136 
21   0.136435 
22   0.123211 
23   0.167966 
24   0.327445 
 
>  <lowdin_charges> 
24 
1   -0.440241 
2   -0.443048 
3   -0.173558 
4   -0.160707 
5   -0.159704 
6   -0.189472 
7   -0.127502 
8   0.008577 
9   0.017772 
10   0.07969 
11   -0.207016 
12   -0.210256 
13   0.153797 
14   0.142262 
15   0.158881 
16   0.15449 
17   0.160265 
18   0.141509 
19   0.15711 
20   0.15414 
21   0.166046 
22   0.157011 
23   0.16864 
24   0.291315 
 
$$$$ 
 
