PCCDB-ID:  15574 
public computational chemistry database (PCCDB) project, http://pccdb.org 
 
 24 23  0  0  0  0  0  0  0  0999 V2000 
    3.6001    0.0400    2.5568 C   0  0  0  0  0  0  0  0  0  0  0  0 
    8.0218    1.5280    1.5565 C   0  0  0  0  0  0  0  0  0  0  0  0 
    2.9549    0.3513    1.1955 C   0  0  0  0  0  0  0  0  0  0  0  0 
    3.5396    1.5738    0.5414 C   0  0  0  0  0  0  0  0  0  0  0  0 
    4.1715    1.5936   -0.6353 C   0  0  0  0  0  0  0  0  0  0  0  0 
    4.7685    2.8212   -1.2684 C   0  0  0  0  0  0  0  0  0  0  0  0 
    6.2819    2.7247   -1.4913 C   0  0  0  0  0  0  0  0  0  0  0  0 
    7.4091    1.4346    0.1784 C   0  0  0  0  0  0  0  0  0  0  0  0 
    7.3057    0.4176   -0.4715 O   0  0  0  0  0  0  0  0  0  0  0  0 
    6.9800    2.6540   -0.2304 O   0  0  0  0  0  0  0  0  0  0  0  0 
    3.1311   -0.8327    3.0253 H   0  0  0  0  0  0  0  0  0  0  0  0 
    3.4963    0.8859    3.2474 H   0  0  0  0  0  0  0  0  0  0  0  0 
    4.6694   -0.1694    2.4412 H   0  0  0  0  0  0  0  0  0  0  0  0 
    8.5497    0.6012    1.7843 H   0  0  0  0  0  0  0  0  0  0  0  0 
    7.2261    1.6815    2.2945 H   0  0  0  0  0  0  0  0  0  0  0  0 
    8.7015    2.3822    1.6228 H   0  0  0  0  0  0  0  0  0  0  0  0 
    1.8741    0.4974    1.3428 H   0  0  0  0  0  0  0  0  0  0  0  0 
    3.0651   -0.5122    0.5277 H   0  0  0  0  0  0  0  0  0  0  0  0 
    3.4361    2.5082    1.0991 H   0  0  0  0  0  0  0  0  0  0  0  0 
    4.2937    0.6610   -1.1884 H   0  0  0  0  0  0  0  0  0  0  0  0 
    4.5523    3.7056   -0.6565 H   0  0  0  0  0  0  0  0  0  0  0  0 
    4.3152    2.9967   -2.2565 H   0  0  0  0  0  0  0  0  0  0  0  0 
    6.6550    3.6302   -1.9782 H   0  0  0  0  0  0  0  0  0  0  0  0 
    6.5441    1.8515   -2.0929 H   0  0  0  0  0  0  0  0  0  0  0  0 
  1 11  1  0  0  0  0 
  1 12  1  0  0  0  0 
  2 16  1  0  0  0  0 
  2 14  1  0  0  0  0 
  2 15  1  0  0  0  0 
  3 17  1  0  0  0  0 
  3  1  1  0  0  0  0 
  4 19  1  0  0  0  0 
  4  3  1  0  0  0  0 
  5  4  2  0  0  0  0 
  6 21  1  0  0  0  0 
  6  5  1  0  0  0  0 
  7  6  1  0  0  0  0 
  7 10  1  0  0  0  0 
  8  2  1  0  0  0  0 
  9  8  2  0  0  0  0 
 10  8  1  0  0  0  0 
 13  1  1  0  0  0  0 
 18  3  1  0  0  0  0 
 20  5  1  0  0  0  0 
 22  6  1  0  0  0  0 
 23  7  1  0  0  0  0 
 24  7  1  0  0  0  0 
M  END 
>  <HBA> 
2 
 
>  <HBD> 
0 
 
>  <TPSA> 
26.3 
 
>  <cid> 
15574 
 
>  <dipole> 
1.73 
 
>  <excitation_energy_1> 
5.836 
 
>  <excitation_energy_2> 
6.015 
 
>  <excitation_energy_3> 
6.272 
 
>  <excitation_energy_4> 
6.307 
 
>  <homo_energy> 
-6.547 
 
>  <homo_lumo_gap> 
7.04 
 
>  <logP> 
1.906 
 
>  <lumo_energy> 
0.493 
 
>  <melting_point> 
-5.66 
 
>  <molecular_refractivity> 
41.38 
 
>  <oscillator_strength_1> 
0.0015 
 
>  <oscillator_strength_2> 
0.0027 
 
>  <oscillator_strength_3> 
0.0401 
 
>  <oscillator_strength_4> 
0.159 
 
>  <open_babel_can_smiles> 
CC/C=C/CCOC(=O)C 
 
>  <mulliken_charges> 
24 
1   -0.442594 
2   -0.525822 
3   -0.294659 
4   -0.093209 
5   -0.090897 
6   -0.316999 
7   -0.058945 
8   0.613812 
9   -0.472748 
10   -0.451816 
11   0.144526 
12   0.140819 
13   0.153197 
14   0.180197 
15   0.184785 
16   0.177486 
17   0.141055 
18   0.14388 
19   0.11467 
20   0.132563 
21   0.14953 
22   0.145251 
23   0.14992 
24   0.175999 
 
>  <lowdin_charges> 
24 
1   -0.442757 
2   -0.46716 
3   -0.266476 
4   -0.165893 
5   -0.171157 
6   -0.278504 
7   -0.135862 
8   0.20433 
9   -0.26877 
10   -0.199586 
11   0.151085 
12   0.146519 
13   0.149751 
14   0.174737 
15   0.179897 
16   0.175152 
17   0.145428 
18   0.149039 
19   0.144342 
20   0.15391 
21   0.152536 
22   0.154543 
23   0.152363 
24   0.162534 
 
$$$$ 
 
