PCCDB-ID:  11384 
public computational chemistry database (PCCDB) project, http://pccdb.org 
 
 25 27  0  0  0  0  0  0  0  0999 V2000 
   -3.6384   -0.6723   -0.0156 C   0  0  0  0  0  0  0  0  0  0  0  0 
   -3.5869    0.7530   -0.0323 C   0  0  0  0  0  0  0  0  0  0  0  0 
   -2.4837   -1.4102    0.0048 C   0  0  0  0  0  0  0  0  0  0  0  0 
   -2.3828    1.4076   -0.0282 C   0  0  0  0  0  0  0  0  0  0  0  0 
    3.5863    0.7500    0.0415 C   0  0  0  0  0  0  0  0  0  0  0  0 
    2.3856    1.3991    0.0193 C   0  0  0  0  0  0  0  0  0  0  0  0 
    0.0035   -1.4646    0.0304 C   0  0  0  0  0  0  0  0  0  0  0  0 
    2.4891   -1.4162    0.0492 C   0  0  0  0  0  0  0  0  0  0  0  0 
   -1.2082   -0.7669    0.0098 C   0  0  0  0  0  0  0  0  0  0  0  0 
    1.2194   -0.7722    0.0350 C   0  0  0  0  0  0  0  0  0  0  0  0 
    3.6583   -0.6847    0.0555 C   0  0  0  0  0  0  0  0  0  0  0  0 
   -1.1548    0.6768   -0.0070 C   0  0  0  0  0  0  0  0  0  0  0  0 
    1.1522    0.6721    0.0161 C   0  0  0  0  0  0  0  0  0  0  0  0 
    4.9147   -1.2851    0.1343 N   0  0  0  0  0  0  0  0  0  0  0  0 
    0.0028    1.3616   -0.0043 N   0  0  0  0  0  0  0  0  0  0  0  0 
   -4.6039   -1.1710   -0.0195 H   0  0  0  0  0  0  0  0  0  0  0  0 
   -4.5150    1.3180   -0.0487 H   0  0  0  0  0  0  0  0  0  0  0  0 
   -2.5193   -2.4972    0.0175 H   0  0  0  0  0  0  0  0  0  0  0  0 
   -2.3171    2.4912   -0.0408 H   0  0  0  0  0  0  0  0  0  0  0  0 
    4.5146    1.3171    0.0564 H   0  0  0  0  0  0  0  0  0  0  0  0 
    2.3266    2.4828    0.0063 H   0  0  0  0  0  0  0  0  0  0  0  0 
   -0.0004   -2.5533    0.0437 H   0  0  0  0  0  0  0  0  0  0  0  0 
    2.5247   -2.5040    0.0598 H   0  0  0  0  0  0  0  0  0  0  0  0 
    5.6739   -0.7542   -0.2738 H   0  0  0  0  0  0  0  0  0  0  0  0 
    4.9463   -2.2580   -0.1441 H   0  0  0  0  0  0  0  0  0  0  0  0 
  1  3  2  0  0  0  0 
  2  4  2  0  0  0  0 
  2  1  1  0  0  0  0 
  3  9  1  0  0  0  0 
  3 18  1  0  0  0  0 
  4 12  1  0  0  0  0 
  5 11  2  0  0  0  0 
  5 20  1  0  0  0  0 
  6  5  1  0  0  0  0 
  7 10  1  0  0  0  0 
  7 22  1  0  0  0  0 
  8 11  1  0  0  0  0 
  8 23  1  0  0  0  0 
  9  7  2  0  0  0  0 
 10  8  2  0  0  0  0 
 11 14  1  0  0  0  0 
 12 15  2  0  0  0  0 
 12  9  1  0  0  0  0 
 13  6  2  0  0  0  0 
 13 10  1  0  0  0  0 
 15 13  1  0  0  0  0 
 16  1  1  0  0  0  0 
 17  2  1  0  0  0  0 
 19  4  1  0  0  0  0 
 21  6  1  0  0  0  0 
 24 14  1  0  0  0  0 
 25 14  1  0  0  0  0 
M  END 
>  <HBA> 
2 
 
>  <HBD> 
1 
 
>  <TPSA> 
38.91 
 
>  <cid> 
11384 
 
>  <dipole> 
3.2 
 
>  <excitation_energy_1> 
3.032 
 
>  <excitation_energy_2> 
3.741 
 
>  <excitation_energy_3> 
3.856 
 
>  <excitation_energy_4> 
4.268 
 
>  <homo_energy> 
-5.184 
 
>  <homo_lumo_gap> 
3.442 
 
>  <logP> 
3.551 
 
>  <lumo_energy> 
-1.742 
 
>  <melting_point> 
158.65 
 
>  <molecular_refractivity> 
63.65 
 
>  <oscillator_strength_1> 
0.0673 
 
>  <oscillator_strength_2> 
0.0546 
 
>  <oscillator_strength_3> 
0.0006 
 
>  <oscillator_strength_4> 
0.0453 
 
>  <open_babel_can_smiles> 
Nc1ccc2c(c1)cc1c(n2)cccc1 
 
>  <mulliken_charges> 
25 
1   -0.138183 
2   -0.139545 
3   -0.189338 
4   -0.14425 
5   -0.166312 
6   -0.151203 
7   -0.242441 
8   -0.260746 
9   0.156134 
10   0.165743 
11   0.315866 
12   0.246825 
13   0.248807 
14   -0.789774 
15   -0.60665 
16   0.130372 
17   0.131017 
18   0.128626 
19   0.140327 
20   0.127523 
21   0.145203 
22   0.129938 
23   0.115224 
24   0.323145 
25   0.323692 
 
>  <lowdin_charges> 
25 
1   -0.157679 
2   -0.158936 
3   -0.156803 
4   -0.149513 
5   -0.175252 
6   -0.139671 
7   -0.141612 
8   -0.218783 
9   -0.016186 
10   -0.007624 
11   0.060001 
12   0.03774 
13   0.034891 
14   -0.481394 
15   -0.155819 
16   0.158577 
17   0.159597 
18   0.154884 
19   0.165887 
20   0.158209 
21   0.168769 
22   0.155368 
23   0.150238 
24   0.278818 
25   0.276292 
 
$$$$ 
 
