PCCDB-ID:  23625 
public computational chemistry database (PCCDB) project, http://pccdb.org 
 
 24 25  0  0  0  0  0  0  0  0999 V2000 
    1.8380    0.3594   -0.7168 C   0  0  0  0  0  0  0  0  0  0  0  0 
    7.0706    0.1107    3.9482 C   0  0  0  0  0  0  0  0  0  0  0  0 
    6.7858    0.4280    2.6174 C   0  0  0  0  0  0  0  0  0  0  0  0 
    6.0443   -0.3311    4.7828 C   0  0  0  0  0  0  0  0  0  0  0  0 
    5.4871    0.3053    2.1259 C   0  0  0  0  0  0  0  0  0  0  0  0 
    4.7439   -0.4528    4.2881 C   0  0  0  0  0  0  0  0  0  0  0  0 
    2.8585   -1.0487    1.0984 C   0  0  0  0  0  0  0  0  0  0  0  0 
    2.4641    0.9408    1.6480 C   0  0  0  0  0  0  0  0  0  0  0  0 
    4.4448   -0.1379    2.9566 C   0  0  0  0  0  0  0  0  0  0  0  0 
    3.0330   -0.2753    2.4413 C   0  0  0  0  0  0  0  0  0  0  0  0 
    2.7678    0.2400    0.3855 N   0  0  0  0  0  0  0  0  0  0  0  0 
    2.1602   -0.2828   -1.5445 H   0  0  0  0  0  0  0  0  0  0  0  0 
    1.8243    1.3936   -1.0796 H   0  0  0  0  0  0  0  0  0  0  0  0 
    0.8018    0.0759   -0.4437 H   0  0  0  0  0  0  0  0  0  0  0  0 
    8.0837    0.2072    4.3296 H   0  0  0  0  0  0  0  0  0  0  0  0 
    7.5794    0.7727    1.9591 H   0  0  0  0  0  0  0  0  0  0  0  0 
    6.2527   -0.5811    5.8200 H   0  0  0  0  0  0  0  0  0  0  0  0 
    5.2664    0.5515    1.0902 H   0  0  0  0  0  0  0  0  0  0  0  0 
    3.9490   -0.7979    4.9462 H   0  0  0  0  0  0  0  0  0  0  0  0 
    1.9167   -1.6251    1.0795 H   0  0  0  0  0  0  0  0  0  0  0  0 
    3.6822   -1.6977    0.7774 H   0  0  0  0  0  0  0  0  0  0  0  0 
    2.9683    1.9066    1.7727 H   0  0  0  0  0  0  0  0  0  0  0  0 
    1.3821    1.0733    1.8250 H   0  0  0  0  0  0  0  0  0  0  0  0 
    2.3809   -0.6269    3.2449 H   0  0  0  0  0  0  0  0  0  0  0  0 
  1 14  1  0  0  0  0 
  1 11  1  0  0  0  0 
  2 15  1  0  0  0  0 
  2  4  2  0  0  0  0 
  3  2  1  0  0  0  0 
  4 17  1  0  0  0  0 
  5  3  2  0  0  0  0 
  5  9  1  0  0  0  0 
  6  4  1  0  0  0  0 
  6 19  1  0  0  0  0 
  7 10  1  0  0  0  0 
  8 22  1  0  0  0  0 
  8 23  1  0  0  0  0 
  8 10  1  0  0  0  0 
  9  6  2  0  0  0  0 
 10  9  1  0  0  0  0 
 10 24  1  0  0  0  0 
 11  7  1  0  0  0  0 
 11  8  1  0  0  0  0 
 12  1  1  0  0  0  0 
 13  1  1  0  0  0  0 
 16  3  1  0  0  0  0 
 18  5  1  0  0  0  0 
 20  7  1  0  0  0  0 
 21  7  1  0  0  0  0 
M  END 
>  <HBA> 
1 
 
>  <HBD> 
0 
 
>  <TPSA> 
3.24 
 
>  <cid> 
23625 
 
>  <dipole> 
1.0 
 
>  <excitation_energy_1> 
5.008 
 
>  <excitation_energy_2> 
5.193 
 
>  <excitation_energy_3> 
5.264 
 
>  <excitation_energy_4> 
5.382 
 
>  <homo_energy> 
-5.829 
 
>  <homo_lumo_gap> 
5.938 
 
>  <logP> 
1.653 
 
>  <lumo_energy> 
0.109 
 
>  <melting_point> 
30.37 
 
>  <molecular_refractivity> 
50.53 
 
>  <oscillator_strength_1> 
0.0002 
 
>  <oscillator_strength_2> 
0.0002 
 
>  <oscillator_strength_3> 
0.0018 
 
>  <oscillator_strength_4> 
0.039 
 
>  <open_babel_can_smiles> 
CN1CC(C1)c1ccccc1 
 
>  <mulliken_charges> 
24 
1   -0.301116 
2   -0.130741 
3   -0.130344 
4   -0.127782 
5   -0.198301 
6   -0.199392 
7   -0.110425 
8   -0.110631 
9   0.195957 
10   -0.236983 
11   -0.380543 
12   0.152456 
13   0.152402 
14   0.115123 
15   0.125391 
16   0.126727 
17   0.125658 
18   0.153045 
19   0.120839 
20   0.117639 
21   0.14655 
22   0.146507 
23   0.117743 
24   0.130221 
 
>  <lowdin_charges> 
24 
1   -0.359379 
2   -0.161365 
3   -0.156969 
4   -0.155866 
5   -0.165744 
6   -0.17215 
7   -0.19809 
8   -0.194422 
9   -0.002542 
10   -0.134743 
11   -0.19555 
12   0.152719 
13   0.150987 
14   0.118056 
15   0.154939 
16   0.157147 
17   0.154505 
18   0.166943 
19   0.153418 
20   0.127171 
21   0.144904 
22   0.143495 
23   0.125232 
24   0.147304 
 
$$$$ 
 
