PCCDB-ID:  66606 
public computational chemistry database (PCCDB) project, http://pccdb.org 
 
 18 18  0  0  0  0  0  0  0  0999 V2000 
    0.8151    0.0208   -0.0483 C   0  0  0  0  0  0  0  0  0  0  0  0 
    4.4623   -1.2010   -0.0603 C   0  0  0  0  0  0  0  0  0  0  0  0 
    4.4555    1.2202   -0.0590 C   0  0  0  0  0  0  0  0  0  0  0  0 
    2.3226   -0.0021   -0.0521 C   0  0  0  0  0  0  0  0  0  0  0  0 
    5.1520    0.0118   -0.0622 C   0  0  0  0  0  0  0  0  0  0  0  0 
    3.0605   -1.1922   -0.0557 C   0  0  0  0  0  0  0  0  0  0  0  0 
    3.0595    1.1934   -0.0535 C   0  0  0  0  0  0  0  0  0  0  0  0 
    6.5193    0.0786   -0.0660 O   0  0  0  0  0  0  0  0  0  0  0  0 
    2.3540   -2.3675   -0.0547 O   0  0  0  0  0  0  0  0  0  0  0  0 
    2.3265    2.3502   -0.0492 O   0  0  0  0  0  0  0  0  0  0  0  0 
    0.4117   -0.9930   -0.0428 H   0  0  0  0  0  0  0  0  0  0  0  0 
    0.4246    0.5448   -0.9291 H   0  0  0  0  0  0  0  0  0  0  0  0 
    0.4293    0.5528    0.8297 H   0  0  0  0  0  0  0  0  0  0  0  0 
    5.0050   -2.1455   -0.0630 H   0  0  0  0  0  0  0  0  0  0  0  0 
    5.0077    2.1558   -0.0616 H   0  0  0  0  0  0  0  0  0  0  0  0 
    6.8770   -0.8223   -0.0792 H   0  0  0  0  0  0  0  0  0  0  0  0 
    2.9796   -3.1074   -0.0521 H   0  0  0  0  0  0  0  0  0  0  0  0 
    2.9360    3.1042   -0.0514 H   0  0  0  0  0  0  0  0  0  0  0  0 
  1 11  1  0  0  0  0 
  1 13  1  0  0  0  0 
  2  6  1  0  0  0  0 
  3  7  2  0  0  0  0 
  4  1  1  0  0  0  0 
  5  2  2  0  0  0  0 
  5  3  1  0  0  0  0 
  6  9  1  0  0  0  0 
  6  4  2  0  0  0  0 
  7  4  1  0  0  0  0 
  7 10  1  0  0  0  0 
  8  5  1  0  0  0  0 
  9 17  1  0  0  0  0 
 12  1  1  0  0  0  0 
 14  2  1  0  0  0  0 
 15  3  1  0  0  0  0 
 16  8  1  0  0  0  0 
 18 10  1  0  0  0  0 
M  END 
>  <HBA> 
3 
 
>  <HBD> 
3 
 
>  <TPSA> 
60.69 
 
>  <cid> 
66606 
 
>  <dipole> 
2.39 
 
>  <excitation_energy_1> 
4.731 
 
>  <excitation_energy_2> 
4.975 
 
>  <excitation_energy_3> 
5.003 
 
>  <excitation_energy_4> 
5.034 
 
>  <homo_energy> 
-5.529 
 
>  <homo_lumo_gap> 
6.158 
 
>  <logP> 
1.112 
 
>  <lumo_energy> 
0.629 
 
>  <melting_point> 
130.08 
 
>  <molecular_refractivity> 
37.48 
 
>  <oscillator_strength_1> 
0.0022 
 
>  <oscillator_strength_2> 
0.0003 
 
>  <oscillator_strength_3> 
0.0102 
 
>  <oscillator_strength_4> 
0.0023 
 
>  <open_babel_can_smiles> 
Oc1cc(O)c(c(c1)O)C 
 
>  <mulliken_charges> 
18 
1   -0.514489 
2   -0.282764 
3   -0.246613 
4   0.092765 
5   0.361587 
6   0.298338 
7   0.298354 
8   -0.650817 
9   -0.649978 
10   -0.644217 
11   0.171016 
12   0.160114 
13   0.160199 
14   0.099349 
15   0.122918 
16   0.407086 
17   0.407631 
18   0.409521 
 
>  <lowdin_charges> 
18 
1   -0.438163 
2   -0.294887 
3   -0.267354 
4   -0.078704 
5   0.120114 
6   0.112319 
7   0.114105 
8   -0.379901 
9   -0.380327 
10   -0.376436 
11   0.166042 
12   0.160661 
13   0.160748 
14   0.146697 
15   0.162123 
16   0.355968 
17   0.357733 
18   0.359262 
 
$$$$ 
 
