PCCDB-ID:  61172 
public computational chemistry database (PCCDB) project, http://pccdb.org 
 
  9  8  0  0  0  0  0  0  0  0999 V2000 
    1.1595    0.0111   -0.2988 C   0  0  0  0  0  0  0  0  0  0  0  0 
    0.6885   -0.0449   -1.7284 N   0  0  0  0  0  0  0  0  0  0  0  0 
    2.6607    0.1226   -0.2434 N   0  0  0  0  0  0  0  0  0  0  0  0 
   -0.1995   -0.8524   -1.9660 O   0  0  0  0  0  0  0  0  0  0  0  0 
    1.1917    0.7556   -2.5013 O   0  0  0  0  0  0  0  0  0  0  0  0 
    3.1069    0.9025    0.5871 O   0  0  0  0  0  0  0  0  0  0  0  0 
    3.2913   -0.6131   -0.9865 O   0  0  0  0  0  0  0  0  0  0  0  0 
    0.8687   -0.9130    0.1967 H   0  0  0  0  0  0  0  0  0  0  0  0 
    0.7306    0.8964    0.1662 H   0  0  0  0  0  0  0  0  0  0  0  0 
  1  3  1  0  0  0  0 
  1  9  1  0  0  0  0 
  1  8  1  0  0  0  0 
  2  1  1  0  0  0  0 
  3  6  2  0  0  0  0 
  4  2  2  0  0  0  0 
  5  2  2  0  0  0  0 
  7  3  2  0  0  0  0 
M  END 
>  <HBA> 
0 
 
>  <HBD> 
0 
 
>  <TPSA> 
91.64 
 
>  <cid> 
61172 
 
>  <dipole> 
3.19 
 
>  <excitation_energy_1> 
4.08 
 
>  <excitation_energy_2> 
4.114 
 
>  <excitation_energy_3> 
4.382 
 
>  <excitation_energy_4> 
4.41 
 
>  <homo_energy> 
-8.77 
 
>  <homo_lumo_gap> 
5.878 
 
>  <logP> 
0.544 
 
>  <lumo_energy> 
-2.893 
 
>  <melting_point> 
38.27 
 
>  <molecular_refractivity> 
23.13 
 
>  <oscillator_strength_1> 
0.0006 
 
>  <oscillator_strength_2> 
0.0001 
 
>  <oscillator_strength_3> 
0.0004 
 
>  <oscillator_strength_4> 
0.0 
 
>  <open_babel_can_smiles> 
O=N(=O)CN(=O)=O 
 
>  <mulliken_charges> 
9 
1   -0.055616 
2   0.469897 
3   0.470109 
4   -0.349787 
5   -0.338651 
6   -0.349808 
7   -0.338661 
8   0.246284 
9   0.246232 
 
>  <lowdin_charges> 
9 
1   -0.172493 
2   0.296197 
3   0.297821 
4   -0.210482 
5   -0.208279 
6   -0.211386 
7   -0.208573 
8   0.208395 
9   0.208801 
 
$$$$ 
 
