PCCDB-ID:  11271 
public computational chemistry database (PCCDB) project, http://pccdb.org 
 
 22 21  0  0  0  0  0  0  0  0999 V2000 
    1.7716    0.4962   -1.4868 C   0  0  0  0  0  0  0  0  0  0  0  0 
    1.5306   -1.4290    0.1560 C   0  0  0  0  0  0  0  0  0  0  0  0 
    0.1891    2.0783    2.3657 C   0  0  0  0  0  0  0  0  0  0  0  0 
    2.2764    3.3510    1.6669 C   0  0  0  0  0  0  0  0  0  0  0  0 
    1.2537    0.0556   -0.0991 C   0  0  0  0  0  0  0  0  0  0  0  0 
    1.2451    2.2939    1.2589 C   0  0  0  0  0  0  0  0  0  0  0  0 
    1.9091    0.9437    0.9641 C   0  0  0  0  0  0  0  0  0  0  0  0 
    2.9147    0.5914    1.5546 O   0  0  0  0  0  0  0  0  0  0  0  0 
    1.2867   -0.0898   -2.2754 H   0  0  0  0  0  0  0  0  0  0  0  0 
    2.8532    0.3357   -1.5594 H   0  0  0  0  0  0  0  0  0  0  0  0 
    1.5709    1.5552   -1.6852 H   0  0  0  0  0  0  0  0  0  0  0  0 
    1.0770   -2.0461   -0.6276 H   0  0  0  0  0  0  0  0  0  0  0  0 
    1.1247   -1.7496    1.1216 H   0  0  0  0  0  0  0  0  0  0  0  0 
    2.6078   -1.6188    0.1723 H   0  0  0  0  0  0  0  0  0  0  0  0 
   -0.3351    3.0167    2.5774 H   0  0  0  0  0  0  0  0  0  0  0  0 
    0.6699    1.7389    3.2900 H   0  0  0  0  0  0  0  0  0  0  0  0 
   -0.5612    1.3323    2.0786 H   0  0  0  0  0  0  0  0  0  0  0  0 
    1.7828    4.2993    1.9075 H   0  0  0  0  0  0  0  0  0  0  0  0 
    2.9967    3.5363    0.8625 H   0  0  0  0  0  0  0  0  0  0  0  0 
    2.8390    3.0162    2.5433 H   0  0  0  0  0  0  0  0  0  0  0  0 
    0.1700    0.2402   -0.0731 H   0  0  0  0  0  0  0  0  0  0  0  0 
    0.7177    2.6225    0.3525 H   0  0  0  0  0  0  0  0  0  0  0  0 
  1  5  1  0  0  0  0 
  2 14  1  0  0  0  0 
  2 13  1  0  0  0  0 
  3 15  1  0  0  0  0 
  3 16  1  0  0  0  0 
  4 18  1  0  0  0  0 
  4 20  1  0  0  0  0 
  5 21  1  0  0  0  0 
  5  2  1  0  0  0  0 
  5  7  1  0  0  0  0 
  6  4  1  0  0  0  0 
  6  3  1  0  0  0  0 
  7  6  1  0  0  0  0 
  7  8  2  0  0  0  0 
  9  1  1  0  0  0  0 
 10  1  1  0  0  0  0 
 11  1  1  0  0  0  0 
 12  2  1  0  0  0  0 
 17  3  1  0  0  0  0 
 19  4  1  0  0  0  0 
 22  6  1  0  0  0  0 
M  END 
>  <HBA> 
1 
 
>  <HBD> 
0 
 
>  <TPSA> 
17.07 
 
>  <cid> 
11271 
 
>  <dipole> 
2.53 
 
>  <excitation_energy_1> 
4.266 
 
>  <excitation_energy_2> 
5.863 
 
>  <excitation_energy_3> 
6.546 
 
>  <excitation_energy_4> 
6.583 
 
>  <homo_energy> 
-6.408 
 
>  <homo_lumo_gap> 
6.12 
 
>  <logP> 
1.867 
 
>  <lumo_energy> 
-0.288 
 
>  <melting_point> 
-5.84 
 
>  <molecular_refractivity> 
35.96 
 
>  <oscillator_strength_1> 
0.0004 
 
>  <oscillator_strength_2> 
0.0012 
 
>  <oscillator_strength_3> 
0.0018 
 
>  <oscillator_strength_4> 
0.0033 
 
>  <open_babel_can_smiles> 
CC(C(=O)C(C)C)C 
 
>  <mulliken_charges> 
22 
1   -0.455456 
2   -0.437885 
3   -0.454645 
4   -0.439354 
5   -0.157506 
6   -0.1549 
7   0.461278 
8   -0.461763 
9   0.154628 
10   0.162726 
11   0.14862 
12   0.136922 
13   0.147531 
14   0.167325 
15   0.153858 
16   0.163838 
17   0.147603 
18   0.137595 
19   0.14652 
20   0.168613 
21   0.133034 
22   0.131416 
 
>  <lowdin_charges> 
22 
1   -0.43686 
2   -0.440008 
3   -0.439659 
4   -0.441789 
5   -0.151366 
6   -0.153524 
7   0.163979 
8   -0.240165 
9   0.156766 
10   0.15552 
11   0.149029 
12   0.149148 
13   0.153064 
14   0.160125 
15   0.155476 
16   0.158173 
17   0.1509 
18   0.148234 
19   0.15306 
20   0.16276 
21   0.142908 
22   0.14423 
 
$$$$ 
 
