PCCDB-ID:  6810 
public computational chemistry database (PCCDB) project, http://pccdb.org 
 
 19 20  0  0  1  0  0  0  0  0999 V2000 
    1.8386    0.6676   -0.6157 C   0  0  0  0  0  0  0  0  0  0  0  0 
    1.8387   -0.6693   -0.6118 C   0  0  0  0  0  0  0  0  0  0  0  0 
    1.0490    1.4331    0.4182 C   0  0  0  0  0  0  0  0  0  0  0  0 
    1.0495   -1.4292    0.4264 C   0  0  0  0  0  0  0  0  0  0  0  0 
   -0.3289    0.7739    0.6776 C   0  0  2  0  0  0  0  0  0  0  0  0 
   -0.3287   -0.7688    0.6823 C   0  0  1  0  0  0  0  0  0  0  0  0 
   -1.3096    1.1433   -0.4328 C   0  0  0  0  0  0  0  0  0  0  0  0 
   -1.3094   -1.1454   -0.4257 C   0  0  0  0  0  0  0  0  0  0  0  0 
   -1.6118    2.2345   -0.8225 O   0  0  0  0  0  0  0  0  0  0  0  0 
   -1.6115   -2.2390   -0.8085 O   0  0  0  0  0  0  0  0  0  0  0  0 
   -1.8578   -0.0028   -0.9892 O   0  0  0  0  0  0  0  0  0  0  0  0 
    2.4108    1.2262   -1.3522 H   0  0  0  0  0  0  0  0  0  0  0  0 
    2.4113   -1.2320   -1.3450 H   0  0  0  0  0  0  0  0  0  0  0  0 
    0.8864    2.4721    0.1163 H   0  0  0  0  0  0  0  0  0  0  0  0 
    1.6028    1.4637    1.3676 H   0  0  0  0  0  0  0  0  0  0  0  0 
    1.6033   -1.4543    1.3760 H   0  0  0  0  0  0  0  0  0  0  0  0 
    0.8870   -2.4698    0.1305 H   0  0  0  0  0  0  0  0  0  0  0  0 
   -0.7461    1.1792    1.6064 H   0  0  0  0  0  0  0  0  0  0  0  0 
   -0.7453   -1.1687    1.6137 H   0  0  0  0  0  0  0  0  0  0  0  0 
  1  2  2  0  0  0  0 
  1  3  1  0  0  0  0 
  2  4  1  0  0  0  0 
  3  5  1  0  0  0  0 
  3 15  1  0  0  0  0 
  4  6  1  0  0  0  0 
  4 16  1  0  0  0  0 
  5  6  1  0  0  0  0 
  5 18  1  1  0  0  0 
  6 19  1  1  0  0  0 
  7  5  1  0  0  0  0 
  8  6  1  0  0  0  0 
  9  7  2  0  0  0  0 
 10  8  2  0  0  0  0 
 11  7  1  0  0  0  0 
 11  8  1  0  0  0  0 
 12  1  1  0  0  0  0 
 13  2  1  0  0  0  0 
 14  3  1  0  0  0  0 
 17  4  1  0  0  0  0 
M  END 
>  <HBA> 
3 
 
>  <HBD> 
0 
 
>  <TPSA> 
43.37 
 
>  <cid> 
6810 
 
>  <dipole> 
4.63 
 
>  <excitation_energy_1> 
5.234 
 
>  <excitation_energy_2> 
5.458 
 
>  <excitation_energy_3> 
5.592 
 
>  <excitation_energy_4> 
5.762 
 
>  <homo_energy> 
-7.2 
 
>  <homo_lumo_gap> 
6.433 
 
>  <logP> 
0.652 
 
>  <lumo_energy> 
-0.767 
 
>  <melting_point> 
60.89 
 
>  <molecular_refractivity> 
37.35 
 
>  <oscillator_strength_1> 
0.0014 
 
>  <oscillator_strength_2> 
0.0004 
 
>  <oscillator_strength_3> 
0.0005 
 
>  <oscillator_strength_4> 
0.0098 
 
>  <open_babel_can_smiles> 
O=C1OC(=O)[C@@H]2[C@H]1CC=CC2 
 
>  <mulliken_charges> 
19 
1   -0.114791 
2   -0.114932 
3   -0.312027 
4   -0.312046 
5   -0.217882 
6   -0.217893 
7   0.625568 
8   0.625561 
9   -0.432676 
10   -0.432675 
11   -0.435373 
12   0.144152 
13   0.144154 
14   0.180235 
15   0.162151 
16   0.162159 
17   0.180245 
18   0.183039 
19   0.183031 
 
>  <lowdin_charges> 
19 
1   -0.173527 
2   -0.173552 
3   -0.269688 
4   -0.269668 
5   -0.16389 
6   -0.163855 
7   0.206459 
8   0.206384 
9   -0.201408 
10   -0.201383 
11   -0.138655 
12   0.164558 
13   0.164569 
14   0.16981 
15   0.159574 
16   0.159575 
17   0.169787 
18   0.177469 
19   0.177442 
 
$$$$ 
 
