PCCDB-ID:  24827 
public computational chemistry database (PCCDB) project, http://pccdb.org 
 
 19 18  0  0  0  0  0  0  0  0999 V2000 
    2.6929    0.2490   -3.2338 C   0  0  0  0  0  0  0  0  0  0  0  0 
    3.7527   -0.9508    1.4458 C   0  0  0  0  0  0  0  0  0  0  0  0 
    2.6942    1.1688   -2.0219 C   0  0  0  0  0  0  0  0  0  0  0  0 
    6.1861   -0.5421    0.9777 C   0  0  0  0  0  0  0  0  0  0  0  0 
    4.7039   -0.4144    0.6740 C   0  0  0  0  0  0  0  0  0  0  0  0 
    4.3952    0.3443   -0.5717 C   0  0  0  0  0  0  0  0  0  0  0  0 
    6.4569   -1.1242    2.2423 O   0  0  0  0  0  0  0  0  0  0  0  0 
    5.2619    0.8118   -1.2892 O   0  0  0  0  0  0  0  0  0  0  0  0 
    3.0715    0.4577   -0.8189 O   0  0  0  0  0  0  0  0  0  0  0  0 
    2.3302    0.7937   -4.1131 H   0  0  0  0  0  0  0  0  0  0  0  0 
    2.0380   -0.6127   -3.0681 H   0  0  0  0  0  0  0  0  0  0  0  0 
    3.7037   -0.1102   -3.4462 H   0  0  0  0  0  0  0  0  0  0  0  0 
    4.0245   -1.5199    2.3295 H   0  0  0  0  0  0  0  0  0  0  0  0 
    2.7009   -0.8453    1.2069 H   0  0  0  0  0  0  0  0  0  0  0  0 
    1.6923    1.5484   -1.8061 H   0  0  0  0  0  0  0  0  0  0  0  0 
    3.3785    2.0088   -2.1632 H   0  0  0  0  0  0  0  0  0  0  0  0 
    6.6653    0.4408    0.8657 H   0  0  0  0  0  0  0  0  0  0  0  0 
    6.6584   -1.1954    0.2357 H   0  0  0  0  0  0  0  0  0  0  0  0 
    6.1791   -0.4877    2.9197 H   0  0  0  0  0  0  0  0  0  0  0  0 
  1 11  1  0  0  0  0 
  1  3  1  0  0  0  0 
  2 13  1  0  0  0  0 
  3 15  1  0  0  0  0 
  3  9  1  0  0  0  0 
  4  7  1  0  0  0  0 
  5  4  1  0  0  0  0 
  5  2  2  0  0  0  0 
  6  5  1  0  0  0  0 
  7 19  1  0  0  0  0 
  8  6  2  0  0  0  0 
  9  6  1  0  0  0  0 
 10  1  1  0  0  0  0 
 12  1  1  0  0  0  0 
 14  2  1  0  0  0  0 
 16  3  1  0  0  0  0 
 17  4  1  0  0  0  0 
 18  4  1  0  0  0  0 
M  END 
>  <HBA> 
3 
 
>  <HBD> 
1 
 
>  <TPSA> 
46.53 
 
>  <cid> 
24827 
 
>  <dipole> 
2.47 
 
>  <excitation_energy_1> 
4.764 
 
>  <excitation_energy_2> 
5.446 
 
>  <excitation_energy_3> 
5.882 
 
>  <excitation_energy_4> 
6.394 
 
>  <homo_energy> 
-7.244 
 
>  <homo_lumo_gap> 
6.09 
 
>  <logP> 
0.098 
 
>  <lumo_energy> 
-1.154 
 
>  <melting_point> 
-12.68 
 
>  <molecular_refractivity> 
32.93 
 
>  <oscillator_strength_1> 
0.0007 
 
>  <oscillator_strength_2> 
0.02 
 
>  <oscillator_strength_3> 
0.1709 
 
>  <oscillator_strength_4> 
0.1163 
 
>  <open_babel_can_smiles> 
CCOC(=O)C(=C)CO 
 
>  <mulliken_charges> 
19 
1   -0.46192 
2   -0.373005 
3   -0.044048 
4   -0.082809 
5   0.070883 
6   0.603115 
7   -0.609782 
8   -0.491999 
9   -0.475706 
10   0.151038 
11   0.157982 
12   0.177377 
13   0.160953 
14   0.172069 
15   0.152779 
16   0.171183 
17   0.154835 
18   0.17592 
19   0.391135 
 
>  <lowdin_charges> 
19 
1   -0.45549 
2   -0.298338 
3   -0.126297 
4   -0.1339 
5   -0.058698 
6   0.197127 
7   -0.456566 
8   -0.275017 
9   -0.19287 
10   0.159901 
11   0.156991 
12   0.165403 
13   0.170443 
14   0.174745 
15   0.151745 
16   0.159704 
17   0.148546 
18   0.167263 
19   0.34531 
 
$$$$ 
 
