PCCDB-ID:  12211 
public computational chemistry database (PCCDB) project, http://pccdb.org 
 
 16 15  0  0  1  0  0  0  0  0999 V2000 
    1.0283    1.9923   -0.1170 C   0  0  0  0  0  0  0  0  0  0  0  0 
    1.4579   -0.4922   -0.0541 C   0  0  0  0  0  0  0  0  0  0  0  0 
    0.8013    0.6531   -0.8217 C   0  0  1  0  0  0  0  0  0  0  0  0 
    1.8050   -2.2389   -1.7036 N   0  0  0  0  0  0  0  0  0  0  0  0 
    0.4522    1.9931    1.1773 O   0  0  0  0  0  0  0  0  0  0  0  0 
   -0.6139    0.4777   -0.8622 O   0  0  0  0  0  0  0  0  0  0  0  0 
    2.7481   -1.5660   -2.0629 O   0  0  0  0  0  0  0  0  0  0  0  0 
    1.3873   -3.2815   -2.1393 O   0  0  0  0  0  0  0  0  0  0  0  0 
    1.0405   -1.7757   -0.5874 O   0  0  0  0  0  0  0  0  0  0  0  0 
    0.6096    2.7911   -0.7475 H   0  0  0  0  0  0  0  0  0  0  0  0 
    2.0992    2.1845    0.0059 H   0  0  0  0  0  0  0  0  0  0  0  0 
    1.0872   -0.5194    0.9722 H   0  0  0  0  0  0  0  0  0  0  0  0 
    2.5471   -0.4252   -0.0575 H   0  0  0  0  0  0  0  0  0  0  0  0 
    1.2176    0.6998   -1.8394 H   0  0  0  0  0  0  0  0  0  0  0  0 
   -0.4731    1.7234    1.0461 H   0  0  0  0  0  0  0  0  0  0  0  0 
   -0.7924   -0.4484   -1.0936 H   0  0  0  0  0  0  0  0  0  0  0  0 
  1 11  1  0  0  0  0 
  1  5  1  0  0  0  0 
  2 12  1  0  0  0  0 
  3 14  1  6  0  0  0 
  3  1  1  0  0  0  0 
  3  2  1  0  0  0  0 
  4  9  1  0  0  0  0 
  6  3  1  0  0  0  0 
  7  4  2  0  0  0  0 
  8  4  2  0  0  0  0 
  9  2  1  0  0  0  0 
 10  1  1  0  0  0  0 
 13  2  1  0  0  0  0 
 15  5  1  0  0  0  0 
 16  6  1  0  0  0  0 
M  END 
>  <HBA> 
2 
 
>  <HBD> 
2 
 
>  <TPSA> 
95.51 
 
>  <cid> 
12211 
 
>  <dipole> 
0.76 
 
>  <excitation_energy_1> 
4.694 
 
>  <excitation_energy_2> 
4.769 
 
>  <excitation_energy_3> 
5.03 
 
>  <excitation_energy_4> 
5.672 
 
>  <homo_energy> 
-7.565 
 
>  <homo_lumo_gap> 
5.426 
 
>  <logP> 
-0.929 
 
>  <lumo_energy> 
-2.139 
 
>  <melting_point> 
36.82 
 
>  <molecular_refractivity> 
28.05 
 
>  <oscillator_strength_1> 
0.0012 
 
>  <oscillator_strength_2> 
0.0115 
 
>  <oscillator_strength_3> 
0.0047 
 
>  <oscillator_strength_4> 
0.0007 
 
>  <open_babel_can_smiles> 
OC[C@@H](CON(=O)=O)O 
 
>  <mulliken_charges> 
16 
1   -0.039575 
2   -0.073768 
3   0.089236 
4   0.742412 
5   -0.620242 
6   -0.641624 
7   -0.360746 
8   -0.342084 
9   -0.392768 
10   0.146672 
11   0.151774 
12   0.195242 
13   0.185767 
14   0.142271 
15   0.40727 
16   0.410162 
 
>  <lowdin_charges> 
16 
1   -0.13838 
2   -0.160881 
3   -0.035487 
4   0.374396 
5   -0.462641 
6   -0.466815 
7   -0.212349 
8   -0.183317 
9   -0.195571 
10   0.144796 
11   0.15098 
12   0.177959 
13   0.168578 
14   0.141679 
15   0.347451 
16   0.349601 
 
$$$$ 
 
