PCCDB-ID:  30581 
public computational chemistry database (PCCDB) project, http://pccdb.org 
 
 26 25  0  0  0  0  0  0  0  0999 V2000 
    2.7446   -1.6474   -2.0594 C   0  0  0  0  0  0  0  0  0  0  0  0 
    2.1629    0.0406    3.8626 C   0  0  0  0  0  0  0  0  0  0  0  0 
    2.0109    0.7195   -2.5058 C   0  0  0  0  0  0  0  0  0  0  0  0 
    3.1283    1.6223   -3.0688 C   0  0  0  0  0  0  0  0  0  0  0  0 
    3.6058   -1.8511    2.7918 C   0  0  0  0  0  0  0  0  0  0  0  0 
    2.5288   -0.3970   -1.6280 C   0  0  0  0  0  0  0  0  0  0  0  0 
    2.3099   -1.4279    3.5292 C   0  0  0  0  0  0  0  0  0  0  0  0 
    3.9833   -0.8849    1.6978 C   0  0  0  0  0  0  0  0  0  0  0  0 
    2.8031   -0.0193   -0.2178 C   0  0  0  0  0  0  0  0  0  0  0  0 
    4.0570    2.0630   -2.0977 O   0  0  0  0  0  0  0  0  0  0  0  0 
    1.4889   -2.2652    3.8326 O   0  0  0  0  0  0  0  0  0  0  0  0 
    4.8395   -0.0482    1.7386 O   0  0  0  0  0  0  0  0  0  0  0  0 
    2.6478    1.0890    0.2443 O   0  0  0  0  0  0  0  0  0  0  0  0 
    3.1678   -1.0936    0.5809 O   0  0  0  0  0  0  0  0  0  0  0  0 
    2.5357   -1.9252   -3.0891 H   0  0  0  0  0  0  0  0  0  0  0  0 
    3.1316   -2.4217   -1.4072 H   0  0  0  0  0  0  0  0  0  0  0  0 
    2.0703    0.6298    2.9405 H   0  0  0  0  0  0  0  0  0  0  0  0 
    3.0549    0.4124    4.3810 H   0  0  0  0  0  0  0  0  0  0  0  0 
    1.2772    0.1892    4.4828 H   0  0  0  0  0  0  0  0  0  0  0  0 
    1.4497    0.2968   -3.3474 H   0  0  0  0  0  0  0  0  0  0  0  0 
    1.3113    1.3335   -1.9265 H   0  0  0  0  0  0  0  0  0  0  0  0 
    2.6573    2.4678   -3.5977 H   0  0  0  0  0  0  0  0  0  0  0  0 
    3.7140    1.0609   -3.8057 H   0  0  0  0  0  0  0  0  0  0  0  0 
    3.4440   -2.8556    2.3953 H   0  0  0  0  0  0  0  0  0  0  0  0 
    4.4255   -1.8683    3.5182 H   0  0  0  0  0  0  0  0  0  0  0  0 
    3.5649    2.3391   -1.3067 H   0  0  0  0  0  0  0  0  0  0  0  0 
  1  6  2  0  0  0  0 
  1 16  1  0  0  0  0 
  2 18  1  0  0  0  0 
  2 19  1  0  0  0  0 
  3 21  1  0  0  0  0 
  3  6  1  0  0  0  0 
  4  3  1  0  0  0  0 
  4 10  1  0  0  0  0 
  5 25  1  0  0  0  0 
  5  7  1  0  0  0  0 
  6  9  1  0  0  0  0 
  7 11  2  0  0  0  0 
  7  2  1  0  0  0  0 
  8 12  2  0  0  0  0 
  8  5  1  0  0  0  0 
  9 13  2  0  0  0  0 
  9 14  1  0  0  0  0 
 10 26  1  0  0  0  0 
 14  8  1  0  0  0  0 
 15  1  1  0  0  0  0 
 17  2  1  0  0  0  0 
 20  3  1  0  0  0  0 
 22  4  1  0  0  0  0 
 23  4  1  0  0  0  0 
 24  5  1  0  0  0  0 
M  END 
>  <HBA> 
5 
 
>  <HBD> 
1 
 
>  <TPSA> 
80.67 
 
>  <cid> 
30581 
 
>  <dipole> 
2.35 
 
>  <excitation_energy_1> 
4.272 
 
>  <excitation_energy_2> 
4.314 
 
>  <excitation_energy_3> 
4.49 
 
>  <excitation_energy_4> 
4.692 
 
>  <homo_energy> 
-7.105 
 
>  <homo_lumo_gap> 
5.089 
 
>  <logP> 
-0.026 
 
>  <lumo_energy> 
-2.016 
 
>  <melting_point> 
28.11 
 
>  <molecular_refractivity> 
47.75 
 
>  <oscillator_strength_1> 
0.0131 
 
>  <oscillator_strength_2> 
0.0043 
 
>  <oscillator_strength_3> 
0.0024 
 
>  <oscillator_strength_4> 
0.0037 
 
>  <open_babel_can_smiles> 
OCCC(=C)C(=O)OC(=O)CC(=O)C 
 
>  <mulliken_charges> 
26 
1   -0.365382 
2   -0.545869 
3   -0.392768 
4   -0.002208 
5   -0.42165 
6   0.157642 
7   0.454873 
8   0.599685 
9   0.623707 
10   -0.624562 
11   -0.41764 
12   -0.40176 
13   -0.46504 
14   -0.502958 
15   0.162606 
16   0.179128 
17   0.203976 
18   0.182101 
19   0.185196 
20   0.150056 
21   0.166618 
22   0.12507 
23   0.143387 
24   0.196981 
25   0.199436 
26   0.409374 
 
>  <lowdin_charges> 
26 
1   -0.277149 
2   -0.480714 
3   -0.29862 
4   -0.129993 
5   -0.330015 
6   -0.027325 
7   0.174573 
8   0.217195 
9   0.226422 
10   -0.468474 
11   -0.213898 
12   -0.191273 
13   -0.235597 
14   -0.182129 
15   0.169287 
16   0.179797 
17   0.187872 
18   0.178203 
19   0.177541 
20   0.160966 
21   0.162896 
22   0.12983 
23   0.145482 
24   0.188104 
25   0.189748 
26   0.347272 
 
$$$$ 
 
