PCCDB-ID:  70091 
public computational chemistry database (PCCDB) project, http://pccdb.org 
 
 21 20  0  0  0  0  0  0  0  0999 V2000 
    0.6096   -0.7619   -1.2707 C   0  0  0  0  0  0  0  0  0  0  0  0 
    3.0997   -1.1367   -1.3909 C   0  0  0  0  0  0  0  0  0  0  0  0 
    2.1178    1.1431   -1.9509 C   0  0  0  0  0  0  0  0  0  0  0  0 
    2.8451    1.1628    0.8280 C   0  0  0  0  0  0  0  0  0  0  0  0 
    1.9892   -0.1227   -1.0999 C   0  0  0  0  0  0  0  0  0  0  0  0 
    1.1185    2.2596    1.8515 N   0  0  0  0  0  0  0  0  0  0  0  0 
    2.5019    2.0856    1.6339 N   0  0  0  0  0  0  0  0  0  0  0  0 
    4.1533    1.0183    0.4702 O   0  0  0  0  0  0  0  0  0  0  0  0 
    2.0103    0.2286    0.3356 O   0  0  0  0  0  0  0  0  0  0  0  0 
    0.4766   -1.1068   -2.3016 H   0  0  0  0  0  0  0  0  0  0  0  0 
   -0.1816   -0.0417   -1.0395 H   0  0  0  0  0  0  0  0  0  0  0  0 
    0.5019   -1.6223   -0.6022 H   0  0  0  0  0  0  0  0  0  0  0  0 
    3.0179   -1.4927   -2.4244 H   0  0  0  0  0  0  0  0  0  0  0  0 
    3.0081   -1.9992   -0.7226 H   0  0  0  0  0  0  0  0  0  0  0  0 
    4.0871   -0.6925   -1.2517 H   0  0  0  0  0  0  0  0  0  0  0  0 
    1.9926    0.8904   -3.0094 H   0  0  0  0  0  0  0  0  0  0  0  0 
    3.1009    1.6063   -1.8283 H   0  0  0  0  0  0  0  0  0  0  0  0 
    1.3478    1.8714   -1.6757 H   0  0  0  0  0  0  0  0  0  0  0  0 
    1.0227    2.6231    2.7956 H   0  0  0  0  0  0  0  0  0  0  0  0 
    0.6276    1.3651    1.8009 H   0  0  0  0  0  0  0  0  0  0  0  0 
    4.6155    1.7669    0.8872 H   0  0  0  0  0  0  0  0  0  0  0  0 
  1  5  1  0  0  0  0 
  1 11  1  0  0  0  0 
  1 12  1  0  0  0  0 
  2 15  1  0  0  0  0 
  2  5  1  0  0  0  0 
  2 14  1  0  0  0  0 
  3 17  1  0  0  0  0 
  3 18  1  0  0  0  0 
  3  5  1  0  0  0  0 
  4  7  2  0  0  0  0 
  5  9  1  0  0  0  0 
  6 19  1  0  0  0  0 
  7  6  1  0  0  0  0 
  8  4  1  0  0  0  0 
  8 21  1  0  0  0  0 
  9  4  1  0  0  0  0 
 10  1  1  0  0  0  0 
 13  2  1  0  0  0  0 
 16  3  1  0  0  0  0 
 20  6  1  0  0  0  0 
M  END 
>  <HBA> 
4 
 
>  <HBD> 
2 
 
>  <TPSA> 
64.35 
 
>  <cid> 
70091 
 
>  <dipole> 
1.32 
 
>  <excitation_energy_1> 
4.969 
 
>  <excitation_energy_2> 
5.268 
 
>  <excitation_energy_3> 
5.58 
 
>  <excitation_energy_4> 
5.947 
 
>  <homo_energy> 
-5.339 
 
>  <homo_lumo_gap> 
6.751 
 
>  <logP> 
1.476 
 
>  <lumo_energy> 
1.412 
 
>  <melting_point> 
89.33 
 
>  <molecular_refractivity> 
33.37 
 
>  <oscillator_strength_1> 
0.0056 
 
>  <oscillator_strength_2> 
0.0079 
 
>  <oscillator_strength_3> 
0.0015 
 
>  <oscillator_strength_4> 
0.0476 
 
>  <open_babel_can_smiles> 
N/N=C(\OC(C)(C)C)/O 
 
>  <mulliken_charges> 
21 
1   -0.449521 
2   -0.450098 
3   -0.475488 
4   0.714579 
5   0.305076 
6   -0.580583 
7   -0.384097 
8   -0.605245 
9   -0.524494 
10   0.145757 
11   0.156107 
12   0.15534 
13   0.138858 
14   0.15181 
15   0.177589 
16   0.148716 
17   0.16629 
18   0.168498 
19   0.315623 
20   0.307348 
21   0.417936 
 
>  <lowdin_charges> 
21 
1   -0.444412 
2   -0.453469 
3   -0.456418 
4   0.153377 
5   0.150423 
6   -0.455974 
7   -0.205404 
8   -0.380897 
9   -0.218524 
10   0.153769 
11   0.158241 
12   0.158047 
13   0.150902 
14   0.157155 
15   0.166801 
16   0.157261 
17   0.162108 
18   0.164547 
19   0.262479 
20   0.251143 
21   0.368845 
 
$$$$ 
 
