PCCDB-ID:  70630 
public computational chemistry database (PCCDB) project, http://pccdb.org 
 
 18 18  0  0  0  0  0  0  0  0999 V2000 
    1.3370    0.6152   -0.1171 C   0  0  0  0  0  0  0  0  0  0  0  0 
    0.5450    1.9371   -0.0728 C   0  0  0  0  0  0  0  0  0  0  0  0 
    3.8897    0.5565   -0.7318 C   0  0  0  0  0  0  0  0  0  0  0  0 
    4.7265    1.1135    1.1521 C   0  0  0  0  0  0  0  0  0  0  0  0 
    2.8117    0.7455    0.1045 C   0  0  0  0  0  0  0  0  0  0  0  0 
    0.3938    2.5274    1.3238 C   0  0  0  0  0  0  0  0  0  0  0  0 
    5.0774    0.7859   -0.0748 N   0  0  0  0  0  0  0  0  0  0  0  0 
    3.3729    1.1013    1.3168 N   0  0  0  0  0  0  0  0  0  0  0  0 
    0.8672    2.0603    2.3349 O   0  0  0  0  0  0  0  0  0  0  0  0 
   -0.3465    3.6601    1.4010 O   0  0  0  0  0  0  0  0  0  0  0  0 
    1.1875    0.1687   -1.1058 H   0  0  0  0  0  0  0  0  0  0  0  0 
    0.8943   -0.0773    0.6102 H   0  0  0  0  0  0  0  0  0  0  0  0 
   -0.4660    1.7772   -0.4755 H   0  0  0  0  0  0  0  0  0  0  0  0 
    1.0238    2.6870   -0.7176 H   0  0  0  0  0  0  0  0  0  0  0  0 
    3.8720    0.2597   -1.7731 H   0  0  0  0  0  0  0  0  0  0  0  0 
    5.4046    1.3660    1.9566 H   0  0  0  0  0  0  0  0  0  0  0  0 
    2.8295    1.3444    2.1369 H   0  0  0  0  0  0  0  0  0  0  0  0 
   -0.6665    3.9145    0.5191 H   0  0  0  0  0  0  0  0  0  0  0  0 
  1  2  1  0  0  0  0 
  1  5  1  0  0  0  0 
  1 12  1  0  0  0  0 
  2  6  1  0  0  0  0 
  3  7  1  0  0  0  0 
  3  5  2  0  0  0  0 
  4  8  1  0  0  0  0 
  4 16  1  0  0  0  0 
  5  8  1  0  0  0  0 
  6 10  1  0  0  0  0 
  6  9  2  0  0  0  0 
  7  4  2  0  0  0  0 
  8 17  1  0  0  0  0 
 11  1  1  0  0  0  0 
 13  2  1  0  0  0  0 
 14  2  1  0  0  0  0 
 15  3  1  0  0  0  0 
 18 10  1  0  0  0  0 
M  END 
>  <HBA> 
3 
 
>  <HBD> 
2 
 
>  <TPSA> 
65.98 
 
>  <cid> 
70630 
 
>  <dipole> 
4.87 
 
>  <excitation_energy_1> 
4.633 
 
>  <excitation_energy_2> 
4.802 
 
>  <excitation_energy_3> 
5.481 
 
>  <excitation_energy_4> 
5.731 
 
>  <homo_energy> 
-5.837 
 
>  <homo_lumo_gap> 
5.489 
 
>  <logP> 
0.427 
 
>  <lumo_energy> 
-0.348 
 
>  <melting_point> 
145.76 
 
>  <molecular_refractivity> 
34.94 
 
>  <oscillator_strength_1> 
0.0021 
 
>  <oscillator_strength_2> 
0.0405 
 
>  <oscillator_strength_3> 
0.0021 
 
>  <oscillator_strength_4> 
0.0007 
 
>  <open_babel_can_smiles> 
OC(=O)CCc1cnc[nH]1 
 
>  <mulliken_charges> 
18 
1   -0.344911 
2   -0.403914 
3   -0.082095 
4   0.203691 
5   0.30946 
6   0.620877 
7   -0.428332 
8   -0.604038 
9   -0.458719 
10   -0.555266 
11   0.160776 
12   0.172376 
13   0.170021 
14   0.18536 
15   0.123181 
16   0.151228 
17   0.363943 
18   0.41636 
 
>  <lowdin_charges> 
18 
1   -0.268038 
2   -0.325328 
3   -0.174224 
4   -0.096056 
5   -0.023599 
6   0.208131 
7   -0.192532 
8   -0.185859 
9   -0.255614 
10   -0.343993 
11   0.166115 
12   0.165987 
13   0.165654 
14   0.17391 
15   0.154252 
16   0.166287 
17   0.302775 
18   0.362132 
 
$$$$ 
 
