PCCDB-ID:  10435 
public computational chemistry database (PCCDB) project, http://pccdb.org 
 
 13 13  0  0  0  0  0  0  0  0999 V2000 
   -0.7664    1.0890    0.0661 C   0  0  0  0  0  0  0  0  0  0  0  0 
   -0.6642   -1.2091   -0.0090 C   0  0  0  0  0  0  0  0  0  0  0  0 
    1.4505    0.0957   -0.0138 C   0  0  0  0  0  0  0  0  0  0  0  0 
   -1.1643   -2.3824   -0.0390 N   0  0  0  0  0  0  0  0  0  0  0  0 
    2.7268    0.0940   -0.0435 N   0  0  0  0  0  0  0  0  0  0  0  0 
   -1.4145   -0.0189    0.0452 N   0  0  0  0  0  0  0  0  0  0  0  0 
    0.6004    1.2172    0.0377 N   0  0  0  0  0  0  0  0  0  0  0  0 
    0.7321   -1.0793   -0.0290 N   0  0  0  0  0  0  0  0  0  0  0  0 
   -1.3130    2.0303    0.1093 H   0  0  0  0  0  0  0  0  0  0  0  0 
   -2.1819   -2.3000   -0.0165 H   0  0  0  0  0  0  0  0  0  0  0  0 
    3.1112    1.0386   -0.0266 H   0  0  0  0  0  0  0  0  0  0  0  0 
    1.0225    2.1344    0.0644 H   0  0  0  0  0  0  0  0  0  0  0  0 
    1.2721   -1.9344   -0.0699 H   0  0  0  0  0  0  0  0  0  0  0  0 
  1  9  1  0  0  0  0 
  2  6  2  0  0  0  0 
  3  7  1  0  0  0  0 
  4 10  1  0  0  0  0 
  4  2  1  0  0  0  0 
  5 11  1  0  0  0  0 
  5  3  2  0  0  0  0 
  6  1  1  0  0  0  0 
  7 12  1  0  0  0  0 
  7  1  1  0  0  0  0 
  8  3  1  0  0  0  0 
  8  2  1  0  0  0  0 
 13  8  1  0  0  0  0 
M  RAD  2   1   2   4   2 
M  END 
>  <HBA> 
5 
 
>  <HBD> 
2 
 
>  <TPSA> 
90.71 
 
>  <cid> 
10435 
 
>  <dipole> 
5.14 
 
>  <excitation_energy_1> 
4.758 
 
>  <excitation_energy_2> 
5.145 
 
>  <excitation_energy_3> 
5.289 
 
>  <excitation_energy_4> 
5.36 
 
>  <homo_energy> 
-6.468 
 
>  <homo_lumo_gap> 
5.47 
 
>  <logP> 
0.198 
 
>  <lumo_energy> 
-0.999 
 
>  <melting_point> 
149.15 
 
>  <molecular_refractivity> 
28.64 
 
>  <oscillator_strength_1> 
0.0176 
 
>  <oscillator_strength_2> 
0.0747 
 
>  <oscillator_strength_3> 
0.0029 
 
>  <oscillator_strength_4> 
0.0024 
 
>  <open_babel_can_smiles> 
N=C1N[CH]N=C(N1)[NH] 
 
>  <mulliken_charges> 
13 
1   0.248114 
2   0.60251 
3   0.688799 
4   -0.636965 
5   -0.638583 
6   -0.445975 
7   -0.630439 
8   -0.642559 
9   0.172306 
10   0.299871 
11   0.27792 
12   0.344267 
13   0.360732 
 
>  <lowdin_charges> 
13 
1   -0.005753 
2   0.118497 
3   0.134366 
4   -0.41435 
5   -0.446025 
6   -0.207701 
7   -0.248066 
8   -0.234334 
9   0.171036 
10   0.264035 
11   0.255026 
12   0.299769 
13   0.3135 
 
$$$$ 
 
