PCCDB-ID:  11723 
public computational chemistry database (PCCDB) project, http://pccdb.org 
 
 16 15  0  0  0  0  0  0  0  0999 V2000 
    2.8590   -1.2922   -0.2750 C   0  0  0  0  0  0  0  0  0  0  0  0 
    2.5878    2.4588   -0.6610 C   0  0  0  0  0  0  0  0  0  0  0  0 
    4.5648    1.1410   -0.9653 C   0  0  0  0  0  0  0  0  0  0  0  0 
    2.5997    0.1702    0.0901 C   0  0  0  0  0  0  0  0  0  0  0  0 
    3.1097    1.1203   -0.9003 N   0  0  0  0  0  0  0  0  0  0  0  0 
    2.3479   -1.9516    0.4355 H   0  0  0  0  0  0  0  0  0  0  0  0 
    3.9235   -1.5474   -0.2479 H   0  0  0  0  0  0  0  0  0  0  0  0 
    2.4811   -1.5064   -1.2804 H   0  0  0  0  0  0  0  0  0  0  0  0 
    2.9317    3.1355   -1.4512 H   0  0  0  0  0  0  0  0  0  0  0  0 
    2.9035    2.8862    0.3125 H   0  0  0  0  0  0  0  0  0  0  0  0 
    1.4926    2.4401   -0.6828 H   0  0  0  0  0  0  0  0  0  0  0  0 
    4.8849    1.8473   -1.7390 H   0  0  0  0  0  0  0  0  0  0  0  0 
    4.9518    0.1547   -1.2364 H   0  0  0  0  0  0  0  0  0  0  0  0 
    5.0383    1.4450   -0.0091 H   0  0  0  0  0  0  0  0  0  0  0  0 
    3.0083    0.3805    1.1010 H   0  0  0  0  0  0  0  0  0  0  0  0 
    1.5159    0.3268    0.1563 H   0  0  0  0  0  0  0  0  0  0  0  0 
  1  7  1  0  0  0  0 
  1  4  1  0  0  0  0 
  1  6  1  0  0  0  0 
  2 10  1  0  0  0  0 
  3  5  1  0  0  0  0 
  3 14  1  0  0  0  0 
  4 16  1  0  0  0  0 
  4 15  1  0  0  0  0 
  5  2  1  0  0  0  0 
  5  4  1  0  0  0  0 
  8  1  1  0  0  0  0 
  9  2  1  0  0  0  0 
 11  2  1  0  0  0  0 
 12  3  1  0  0  0  0 
 13  3  1  0  0  0  0 
M  END 
>  <HBA> 
1 
 
>  <HBD> 
0 
 
>  <TPSA> 
3.24 
 
>  <cid> 
11723 
 
>  <dipole> 
0.53 
 
>  <excitation_energy_1> 
5.343 
 
>  <excitation_energy_2> 
5.767 
 
>  <excitation_energy_3> 
5.881 
 
>  <excitation_energy_4> 
6.087 
 
>  <homo_energy> 
-5.63 
 
>  <homo_lumo_gap> 
7.97 
 
>  <logP> 
0.568 
 
>  <lumo_energy> 
2.34 
 
>  <melting_point> 
-22.6 
 
>  <molecular_refractivity> 
24.24 
 
>  <oscillator_strength_1> 
0.0251 
 
>  <oscillator_strength_2> 
0.0196 
 
>  <oscillator_strength_3> 
0.0103 
 
>  <oscillator_strength_4> 
0.103 
 
>  <open_babel_can_smiles> 
CCN(C)C 
 
>  <mulliken_charges> 
16 
1   -0.451207 
2   -0.292439 
3   -0.299483 
4   -0.102768 
5   -0.359649 
6   0.142037 
7   0.14629 
8   0.156294 
9   0.146015 
10   0.114677 
11   0.146919 
12   0.146937 
13   0.152496 
14   0.11378 
15   0.105548 
16   0.134553 
 
>  <lowdin_charges> 
16 
1   -0.449777 
2   -0.354731 
3   -0.359373 
4   -0.192812 
5   -0.184918 
6   0.153754 
7   0.146577 
8   0.154555 
9   0.149568 
10   0.118157 
11   0.146259 
12   0.150701 
13   0.150681 
14   0.118222 
15   0.112301 
16   0.140835 
 
$$$$ 
 
