PCCDB-ID:  25604 
public computational chemistry database (PCCDB) project, http://pccdb.org 
 
 19 18  0  0  0  0  0  0  0  0999 V2000 
    5.8524   -2.4882   -2.2988 C   0  0  0  0  0  0  0  0  0  0  0  0 
    1.2607   -1.1665   -1.2144 C   0  0  0  0  0  0  0  0  0  0  0  0 
    2.3728   -2.2115   -1.0783 C   0  0  0  0  0  0  0  0  0  0  0  0 
    1.5585    0.1752   -0.5331 C   0  0  0  0  0  0  0  0  0  0  0  0 
    3.6393   -1.8299   -1.8235 C   0  0  0  0  0  0  0  0  0  0  0  0 
    1.6527   -0.0179    0.9564 N   0  0  0  0  0  0  0  0  0  0  0  0 
    3.7821   -0.8334   -2.5024 O   0  0  0  0  0  0  0  0  0  0  0  0 
    0.6027   -0.0074    1.5931 O   0  0  0  0  0  0  0  0  0  0  0  0 
    2.7699   -0.2248    1.4287 O   0  0  0  0  0  0  0  0  0  0  0  0 
    4.6002   -2.7552   -1.6423 O   0  0  0  0  0  0  0  0  0  0  0  0 
    6.2747   -1.5440   -1.9458 H   0  0  0  0  0  0  0  0  0  0  0  0 
    5.7141   -2.4355   -3.3819 H   0  0  0  0  0  0  0  0  0  0  0  0 
    6.5027   -3.3222   -2.0348 H   0  0  0  0  0  0  0  0  0  0  0  0 
    0.3262   -1.5674   -0.8068 H   0  0  0  0  0  0  0  0  0  0  0  0 
    1.0914   -0.9489   -2.2741 H   0  0  0  0  0  0  0  0  0  0  0  0 
    2.0306   -3.1764   -1.4726 H   0  0  0  0  0  0  0  0  0  0  0  0 
    2.6348   -2.3933   -0.0299 H   0  0  0  0  0  0  0  0  0  0  0  0 
    0.7450    0.8840   -0.6917 H   0  0  0  0  0  0  0  0  0  0  0  0 
    2.5114    0.5880   -0.8598 H   0  0  0  0  0  0  0  0  0  0  0  0 
  1 13  1  0  0  0  0 
  1 11  1  0  0  0  0 
  1 10  1  0  0  0  0 
  2  3  1  0  0  0  0 
  2 14  1  0  0  0  0 
  2  4  1  0  0  0  0 
  3 17  1  0  0  0  0 
  4  6  1  0  0  0  0 
  5 10  1  0  0  0  0 
  5  3  1  0  0  0  0 
  6  9  2  0  0  0  0 
  6  8  2  0  0  0  0 
  7  5  2  0  0  0  0 
 12  1  1  0  0  0  0 
 15  2  1  0  0  0  0 
 16  3  1  0  0  0  0 
 18  4  1  0  0  0  0 
 19  4  1  0  0  0  0 
M  END 
>  <HBA> 
2 
 
>  <HBD> 
0 
 
>  <TPSA> 
72.12 
 
>  <cid> 
25604 
 
>  <dipole> 
3.36 
 
>  <excitation_energy_1> 
4.057 
 
>  <excitation_energy_2> 
4.392 
 
>  <excitation_energy_3> 
5.081 
 
>  <excitation_energy_4> 
5.866 
 
>  <homo_energy> 
-7.704 
 
>  <homo_lumo_gap> 
5.886 
 
>  <logP> 
0.74 
 
>  <lumo_energy> 
-1.818 
 
>  <melting_point> 
17.3 
 
>  <molecular_refractivity> 
35.54 
 
>  <oscillator_strength_1> 
0.0001 
 
>  <oscillator_strength_2> 
0.0003 
 
>  <oscillator_strength_3> 
0.002 
 
>  <oscillator_strength_4> 
0.0009 
 
>  <open_babel_can_smiles> 
COC(=O)CCCN(=O)=O 
 
>  <mulliken_charges> 
19 
1   -0.220383 
2   -0.280991 
3   -0.374085 
4   -0.164326 
5   0.633789 
6   0.44215 
7   -0.485316 
8   -0.375827 
9   -0.376873 
10   -0.447145 
11   0.175694 
12   0.171336 
13   0.169493 
14   0.170266 
15   0.178521 
16   0.18344 
17   0.201087 
18   0.186588 
19   0.212582 
 
>  <lowdin_charges> 
19 
1   -0.275463 
2   -0.27042 
3   -0.307737 
4   -0.220768 
5   0.197645 
6   0.294855 
7   -0.271721 
8   -0.247234 
9   -0.251884 
10   -0.18522 
11   0.16253 
12   0.157868 
13   0.164248 
14   0.163555 
15   0.169866 
16   0.177549 
17   0.180435 
18   0.176918 
19   0.184979 
 
$$$$ 
 
