PCCDB-ID:  69104 
public computational chemistry database (PCCDB) project, http://pccdb.org 
 
 20 19  0  0  0  0  0  0  0  0999 V2000 
    0.9831    0.2265   -0.0564 C   0  0  0  0  0  0  0  0  0  0  0  0 
    4.8967   -1.1360   -2.6300 C   0  0  0  0  0  0  0  0  0  0  0  0 
    4.5211    3.1732    0.8473 C   0  0  0  0  0  0  0  0  0  0  0  0 
    2.5147    0.2067   -0.1239 C   0  0  0  0  0  0  0  0  0  0  0  0 
    2.9994   -0.5774   -1.3462 C   0  0  0  0  0  0  0  0  0  0  0  0 
    3.0730    1.6263   -0.1757 C   0  0  0  0  0  0  0  0  0  0  0  0 
    2.3015   -1.2609   -2.0587 O   0  0  0  0  0  0  0  0  0  0  0  0 
    2.7580    2.4527   -1.0036 O   0  0  0  0  0  0  0  0  0  0  0  0 
    4.3312   -0.4328   -1.5097 O   0  0  0  0  0  0  0  0  0  0  0  0 
    3.9429    1.8562    0.8277 O   0  0  0  0  0  0  0  0  0  0  0  0 
    0.5904   -0.7909   -0.1183 H   0  0  0  0  0  0  0  0  0  0  0  0 
    0.5781    0.8042   -0.8910 H   0  0  0  0  0  0  0  0  0  0  0  0 
    0.6481    0.6815    0.8811 H   0  0  0  0  0  0  0  0  0  0  0  0 
    5.9624   -0.9073   -2.6099 H   0  0  0  0  0  0  0  0  0  0  0  0 
    4.4455   -0.7910   -3.5637 H   0  0  0  0  0  0  0  0  0  0  0  0 
    4.7312   -2.2118   -2.5291 H   0  0  0  0  0  0  0  0  0  0  0  0 
    5.1832    3.1881    1.7133 H   0  0  0  0  0  0  0  0  0  0  0  0 
    3.7410    3.9328    0.9441 H   0  0  0  0  0  0  0  0  0  0  0  0 
    5.0837    3.3559   -0.0718 H   0  0  0  0  0  0  0  0  0  0  0  0 
    2.9368   -0.2896    0.7573 H   0  0  0  0  0  0  0  0  0  0  0  0 
  1 13  1  0  0  0  0 
  2 14  1  0  0  0  0 
  2 16  1  0  0  0  0 
  2  9  1  0  0  0  0 
  3 18  1  0  0  0  0 
  3 17  1  0  0  0  0 
  4  1  1  0  0  0  0 
  4 20  1  0  0  0  0 
  5  4  1  0  0  0  0 
  6  4  1  0  0  0  0 
  6 10  1  0  0  0  0 
  7  5  2  0  0  0  0 
  8  6  2  0  0  0  0 
  9  5  1  0  0  0  0 
 10  3  1  0  0  0  0 
 11  1  1  0  0  0  0 
 12  1  1  0  0  0  0 
 15  2  1  0  0  0  0 
 19  3  1  0  0  0  0 
M  END 
>  <HBA> 
4 
 
>  <HBD> 
0 
 
>  <TPSA> 
52.6 
 
>  <cid> 
69104 
 
>  <dipole> 
2.87 
 
>  <excitation_energy_1> 
5.731 
 
>  <excitation_energy_2> 
5.808 
 
>  <excitation_energy_3> 
6.677 
 
>  <excitation_energy_4> 
6.89 
 
>  <homo_energy> 
-7.44 
 
>  <homo_lumo_gap> 
7.407 
 
>  <logP> 
-0.032 
 
>  <lumo_energy> 
-0.033 
 
>  <melting_point> 
-1.68 
 
>  <molecular_refractivity> 
33.53 
 
>  <oscillator_strength_1> 
0.0048 
 
>  <oscillator_strength_2> 
0.0017 
 
>  <oscillator_strength_3> 
0.0004 
 
>  <oscillator_strength_4> 
0.0595 
 
>  <open_babel_can_smiles> 
COC(=O)C(C(=O)OC)C 
 
>  <mulliken_charges> 
20 
1   -0.447604 
2   -0.220379 
3   -0.220916 
4   -0.256724 
5   0.644139 
6   0.633036 
7   -0.471 
8   -0.480903 
9   -0.453436 
10   -0.44565 
11   0.17153 
12   0.182544 
13   0.149502 
14   0.167497 
15   0.177324 
16   0.171976 
17   0.166435 
18   0.172805 
19   0.174169 
20   0.185656 
 
>  <lowdin_charges> 
20 
1   -0.433818 
2   -0.273673 
3   -0.279328 
4   -0.172156 
5   0.203665 
6   0.198436 
7   -0.248496 
8   -0.261938 
9   -0.189036 
10   -0.18497 
11   0.16661 
12   0.171336 
13   0.155202 
14   0.160654 
15   0.16335 
16   0.158495 
17   0.16212 
18   0.161783 
19   0.162061 
20   0.179705 
 
$$$$ 
 
