PCCDB-ID:  17916 
public computational chemistry database (PCCDB) project, http://pccdb.org 
 
 20 19  0  0  0  0  0  0  0  0999 V2000 
    1.0911   -0.4036    0.6415 C   0  0  0  0  0  0  0  0  0  0  0  0 
    2.4221    1.4464   -1.4451 C   0  0  0  0  0  0  0  0  0  0  0  0 
    2.1982    0.6336    0.8351 C   0  0  0  0  0  0  0  0  0  0  0  0 
    4.3640    1.4066    0.0194 C   0  0  0  0  0  0  0  0  0  0  0  0 
    5.3250    0.3653    0.6037 C   0  0  0  0  0  0  0  0  0  0  0  0 
    3.0832    0.7715   -0.3309 N   0  0  0  0  0  0  0  0  0  0  0  0 
    5.4407   -0.7392   -0.2718 O   0  0  0  0  0  0  0  0  0  0  0  0 
    0.5136   -0.5117    1.5665 H   0  0  0  0  0  0  0  0  0  0  0  0 
    1.5190   -1.3790    0.3865 H   0  0  0  0  0  0  0  0  0  0  0  0 
    0.3894   -0.1223   -0.1505 H   0  0  0  0  0  0  0  0  0  0  0  0 
    1.5274    0.8938   -1.7453 H   0  0  0  0  0  0  0  0  0  0  0  0 
    3.0967    1.4802   -2.3061 H   0  0  0  0  0  0  0  0  0  0  0  0 
    2.1174    2.4821   -1.2018 H   0  0  0  0  0  0  0  0  0  0  0  0 
    2.8149    0.3267    1.6861 H   0  0  0  0  0  0  0  0  0  0  0  0 
    1.7558    1.6125    1.1054 H   0  0  0  0  0  0  0  0  0  0  0  0 
    4.8077    1.7918   -0.9048 H   0  0  0  0  0  0  0  0  0  0  0  0 
    4.2364    2.2625    0.7074 H   0  0  0  0  0  0  0  0  0  0  0  0 
    4.9893    0.0479    1.6064 H   0  0  0  0  0  0  0  0  0  0  0  0 
    6.3215    0.8053    0.7238 H   0  0  0  0  0  0  0  0  0  0  0  0 
    4.5287   -0.8748   -0.5941 H   0  0  0  0  0  0  0  0  0  0  0  0 
  1  3  1  0  0  0  0 
  1  8  1  0  0  0  0 
  2 13  1  0  0  0  0 
  2  6  1  0  0  0  0 
  3 15  1  0  0  0  0 
  3 14  1  0  0  0  0 
  4  5  1  0  0  0  0 
  4 17  1  0  0  0  0 
  5 19  1  0  0  0  0 
  5 18  1  0  0  0  0 
  6  4  1  0  0  0  0 
  6  3  1  0  0  0  0 
  7  5  1  0  0  0  0 
  9  1  1  0  0  0  0 
 10  1  1  0  0  0  0 
 11  2  1  0  0  0  0 
 12  2  1  0  0  0  0 
 16  4  1  0  0  0  0 
 20  7  1  0  0  0  0 
M  END 
>  <HBA> 
2 
 
>  <HBD> 
1 
 
>  <TPSA> 
23.47 
 
>  <cid> 
17916 
 
>  <dipole> 
2.65 
 
>  <excitation_energy_1> 
5.733 
 
>  <excitation_energy_2> 
6.007 
 
>  <excitation_energy_3> 
6.121 
 
>  <excitation_energy_4> 
6.248 
 
>  <homo_energy> 
-6.123 
 
>  <homo_lumo_gap> 
8.261 
 
>  <logP> 
-0.07 
 
>  <lumo_energy> 
2.139 
 
>  <melting_point> 
-4.64 
 
>  <molecular_refractivity> 
30.21 
 
>  <oscillator_strength_1> 
0.0348 
 
>  <oscillator_strength_2> 
0.0538 
 
>  <oscillator_strength_3> 
0.0329 
 
>  <oscillator_strength_4> 
0.0666 
 
>  <open_babel_can_smiles> 
OCCN(CC)C 
 
>  <mulliken_charges> 
20 
1   -0.448428 
2   -0.303693 
3   -0.117577 
4   -0.150513 
5   -0.01721 
6   -0.399036 
7   -0.628075 
8   0.146741 
9   0.155239 
10   0.149005 
11   0.155339 
12   0.156824 
13   0.124102 
14   0.146039 
15   0.117015 
16   0.147025 
17   0.118189 
18   0.116243 
19   0.1388 
20   0.39397 
 
>  <lowdin_charges> 
20 
1   -0.450085 
2   -0.358421 
3   -0.20092 
4   -0.221862 
5   -0.138298 
6   -0.191558 
7   -0.476158 
8   0.154959 
9   0.15413 
10   0.15017 
11   0.152748 
12   0.154442 
13   0.123698 
14   0.148752 
15   0.121086 
16   0.151319 
17   0.128426 
18   0.119735 
19   0.144981 
20   0.332854 
 
$$$$ 
 
