PCCDB-ID:  7334 
public computational chemistry database (PCCDB) project, http://pccdb.org 
 
 34 34  0  0  1  0  0  0  0  0999 V2000 
    2.0263    0.0033   -3.1991 C   0  0  0  0  0  0  0  0  0  0  0  0 
    6.3473    0.7789    3.7994 C   0  0  0  0  0  0  0  0  0  0  0  0 
    8.6013   -0.2598    3.2650 C   0  0  0  0  0  0  0  0  0  0  0  0 
    5.1642    3.2908   -0.5274 C   0  0  0  0  0  0  0  0  0  0  0  0 
    7.4733    2.3945   -1.0787 C   0  0  0  0  0  0  0  0  0  0  0  0 
    2.6419   -0.9372   -2.1736 C   0  0  0  0  0  0  0  0  0  0  0  0 
    7.1765    0.5767    1.4159 C   0  0  0  0  0  0  0  0  0  0  0  0 
    7.3433    0.3865    2.7362 C   0  0  0  0  0  0  0  0  0  0  0  0 
    6.0097    1.1840    0.7356 C   0  0  2  0  0  0  0  0  0  0  0  0 
    5.5797    0.6810   -0.6499 C   0  0  1  0  0  0  0  0  0  0  0  0 
    4.1421    0.3897   -0.8798 C   0  0  0  0  0  0  0  0  0  0  0  0 
    6.1132    2.1055   -0.4622 C   0  0  0  0  0  0  0  0  0  0  0  0 
    3.2045    0.8964   -0.2900 O   0  0  0  0  0  0  0  0  0  0  0  0 
    3.9967   -0.5486   -1.8481 O   0  0  0  0  0  0  0  0  0  0  0  0 
    1.0306   -0.3557   -3.4846 H   0  0  0  0  0  0  0  0  0  0  0  0 
    2.6452    0.0553   -4.1009 H   0  0  0  0  0  0  0  0  0  0  0  0 
    1.9221    1.0091   -2.7825 H   0  0  0  0  0  0  0  0  0  0  0  0 
    6.0429   -0.0982    4.3873 H   0  0  0  0  0  0  0  0  0  0  0  0 
    5.4432    1.2429    3.3997 H   0  0  0  0  0  0  0  0  0  0  0  0 
    6.7997    1.4850    4.5099 H   0  0  0  0  0  0  0  0  0  0  0  0 
    9.1352    0.4136    3.9508 H   0  0  0  0  0  0  0  0  0  0  0  0 
    9.2894   -0.5385    2.4605 H   0  0  0  0  0  0  0  0  0  0  0  0 
    8.3685   -1.1664    3.8417 H   0  0  0  0  0  0  0  0  0  0  0  0 
    5.5828    4.1331    0.0378 H   0  0  0  0  0  0  0  0  0  0  0  0 
    4.1816    3.0497   -0.1181 H   0  0  0  0  0  0  0  0  0  0  0  0 
    5.0286    3.6230   -1.5650 H   0  0  0  0  0  0  0  0  0  0  0  0 
    7.9828    3.1941   -0.5264 H   0  0  0  0  0  0  0  0  0  0  0  0 
    7.3563    2.7283   -2.1171 H   0  0  0  0  0  0  0  0  0  0  0  0 
    8.1322    1.5215   -1.0843 H   0  0  0  0  0  0  0  0  0  0  0  0 
    2.7398   -1.9514   -2.5694 H   0  0  0  0  0  0  0  0  0  0  0  0 
    2.0504   -0.9613   -1.2550 H   0  0  0  0  0  0  0  0  0  0  0  0 
    7.9805    0.2426    0.7610 H   0  0  0  0  0  0  0  0  0  0  0  0 
    5.1522    1.4028    1.3660 H   0  0  0  0  0  0  0  0  0  0  0  0 
    6.2522   -0.0068   -1.1538 H   0  0  0  0  0  0  0  0  0  0  0  0 
  1 17  1  0  0  0  0 
  1  6  1  0  0  0  0 
  2 18  1  0  0  0  0 
  2 20  1  0  0  0  0 
  3 23  1  0  0  0  0 
  3 21  1  0  0  0  0 
  4 12  1  0  0  0  0 
  4 25  1  0  0  0  0 
  4 24  1  0  0  0  0 
  5 27  1  0  0  0  0 
  5 12  1  0  0  0  0 
  6 14  1  0  0  0  0 
  6 31  1  0  0  0  0 
  7  8  2  0  0  0  0 
  8  3  1  0  0  0  0 
  8  2  1  0  0  0  0 
  9 33  1  1  0  0  0 
  9  7  1  0  0  0  0 
 10 34  1  6  0  0  0 
 10 12  1  0  0  0  0 
 10  9  1  0  0  0  0 
 11 10  1  0  0  0  0 
 11 13  2  0  0  0  0 
 12  9  1  0  0  0  0 
 14 11  1  0  0  0  0 
 15  1  1  0  0  0  0 
 16  1  1  0  0  0  0 
 19  2  1  0  0  0  0 
 22  3  1  0  0  0  0 
 26  4  1  0  0  0  0 
 28  5  1  0  0  0  0 
 29  5  1  0  0  0  0 
 30  6  1  0  0  0  0 
 32  7  1  0  0  0  0 
M  END 
>  <HBA> 
2 
 
>  <HBD> 
0 
 
>  <TPSA> 
26.3 
 
>  <cid> 
7334 
 
>  <dipole> 
1.23 
 
>  <excitation_energy_1> 
5.312 
 
>  <excitation_energy_2> 
5.546 
 
>  <excitation_energy_3> 
5.718 
 
>  <excitation_energy_4> 
5.931 
 
>  <homo_energy> 
-5.948 
 
>  <homo_lumo_gap> 
6.106 
 
>  <logP> 
2.788 
 
>  <lumo_energy> 
0.158 
 
>  <melting_point> 
36.37 
 
>  <molecular_refractivity> 
58.23 
 
>  <oscillator_strength_1> 
0.1619 
 
>  <oscillator_strength_2> 
0.0415 
 
>  <oscillator_strength_3> 
0.0071 
 
>  <oscillator_strength_4> 
0.0328 
 
>  <open_babel_can_smiles> 
CCOC(=O)[C@@H]1[C@H](C1(C)C)C=C(C)C 
 
>  <mulliken_charges> 
34 
1   -0.461422 
2   -0.513615 
3   -0.508835 
4   -0.480416 
5   -0.462624 
6   -0.0426 
7   -0.146503 
8   0.174001 
9   -0.164277 
10   -0.24468 
11   0.653003 
12   0.120788 
13   -0.508183 
14   -0.475029 
15   0.148122 
16   0.155681 
17   0.175365 
18   0.153574 
19   0.160514 
20   0.152576 
21   0.150068 
22   0.150578 
23   0.150515 
24   0.143861 
25   0.184963 
26   0.140678 
27   0.152503 
28   0.149005 
29   0.145835 
30   0.15001 
31   0.169349 
32   0.108789 
33   0.165814 
34   0.152593 
 
>  <lowdin_charges> 
34 
1   -0.454213 
2   -0.44565 
3   -0.441031 
4   -0.443723 
5   -0.434638 
6   -0.127693 
7   -0.186932 
8   -0.008985 
9   -0.139768 
10   -0.193244 
11   0.206586 
12   0.017621 
13   -0.290971 
14   -0.197331 
15   0.157135 
16   0.15539 
17   0.164215 
18   0.156885 
19   0.158666 
20   0.156941 
21   0.15414 
22   0.154478 
23   0.153394 
24   0.152469 
25   0.17119 
26   0.147649 
27   0.15594 
28   0.152367 
29   0.151462 
30   0.149993 
31   0.158564 
32   0.148266 
33   0.170442 
34   0.170384 
 
$$$$ 
 
