PCCDB-ID:  70262 
public computational chemistry database (PCCDB) project, http://pccdb.org 
 
 18 18  0  0  0  0  0  0  0  0999 V2000 
    3.1935   -0.4119    1.4411 C   0  0  0  0  0  0  0  0  0  0  0  0 
    2.8058    4.9091   -0.4237 C   0  0  0  0  0  0  0  0  0  0  0  0 
    2.5407   -0.0905    0.0839 C   0  0  0  0  0  0  0  0  0  0  0  0 
    3.8664    2.8171   -1.6041 C   0  0  0  0  0  0  0  0  0  0  0  0 
    3.0716    3.4642   -0.6900 C   0  0  0  0  0  0  0  0  0  0  0  0 
    2.9389    1.2426   -0.4729 C   0  0  0  0  0  0  0  0  0  0  0  0 
    3.7808    1.4478   -1.4659 N   0  0  0  0  0  0  0  0  0  0  0  0 
    2.4816    2.4373    0.0307 N   0  0  0  0  0  0  0  0  0  0  0  0 
    2.8859   -1.4023    1.7952 H   0  0  0  0  0  0  0  0  0  0  0  0 
    2.9109    0.3195    2.2079 H   0  0  0  0  0  0  0  0  0  0  0  0 
    4.2849   -0.4013    1.3559 H   0  0  0  0  0  0  0  0  0  0  0  0 
    3.3607    5.5240   -1.1381 H   0  0  0  0  0  0  0  0  0  0  0  0 
    3.1187    5.2122    0.5848 H   0  0  0  0  0  0  0  0  0  0  0  0 
    1.7420    5.1630   -0.5273 H   0  0  0  0  0  0  0  0  0  0  0  0 
    1.4471   -0.1485    0.1801 H   0  0  0  0  0  0  0  0  0  0  0  0 
    2.8357   -0.8405   -0.6558 H   0  0  0  0  0  0  0  0  0  0  0  0 
    4.4954    3.2678   -2.3612 H   0  0  0  0  0  0  0  0  0  0  0  0 
    1.8274    2.5519    0.7918 H   0  0  0  0  0  0  0  0  0  0  0  0 
  1  9  1  0  0  0  0 
  1 10  1  0  0  0  0 
  2 13  1  0  0  0  0 
  3 15  1  0  0  0  0 
  3  1  1  0  0  0  0 
  4  7  1  0  0  0  0 
  4  5  2  0  0  0  0 
  5  2  1  0  0  0  0 
  5  8  1  0  0  0  0 
  6  8  1  0  0  0  0 
  6  3  1  0  0  0  0 
  7  6  2  0  0  0  0 
  8 18  1  0  0  0  0 
 11  1  1  0  0  0  0 
 12  2  1  0  0  0  0 
 14  2  1  0  0  0  0 
 16  3  1  0  0  0  0 
 17  4  1  0  0  0  0 
M  END 
>  <HBA> 
1 
 
>  <HBD> 
1 
 
>  <TPSA> 
28.68 
 
>  <cid> 
70262 
 
>  <dipole> 
3.63 
 
>  <excitation_energy_1> 
4.886 
 
>  <excitation_energy_2> 
5.511 
 
>  <excitation_energy_3> 
5.86 
 
>  <excitation_energy_4> 
5.969 
 
>  <homo_energy> 
-5.576 
 
>  <homo_lumo_gap> 
6.542 
 
>  <logP> 
1.28 
 
>  <lumo_energy> 
0.966 
 
>  <melting_point> 
74.11 
 
>  <molecular_refractivity> 
33.33 
 
>  <oscillator_strength_1> 
0.0063 
 
>  <oscillator_strength_2> 
0.0631 
 
>  <oscillator_strength_3> 
0.0722 
 
>  <oscillator_strength_4> 
0.0219 
 
>  <open_babel_can_smiles> 
CCc1ncc([nH]1)C 
 
>  <mulliken_charges> 
18 
1   -0.438802 
2   -0.534596 
3   -0.335775 
4   -0.082935 
5   0.333006 
6   0.483166 
7   -0.474699 
8   -0.646128 
9   0.147393 
10   0.133684 
11   0.165355 
12   0.17319 
13   0.15916 
14   0.158282 
15   0.139335 
16   0.17569 
17   0.122989 
18   0.321687 
 
>  <lowdin_charges> 
18 
1   -0.440214 
2   -0.441366 
3   -0.27634 
4   -0.176982 
5   -0.011171 
6   0.04756 
7   -0.203585 
8   -0.196525 
9   0.151138 
10   0.143012 
11   0.156938 
12   0.172254 
13   0.156696 
14   0.15571 
15   0.145384 
16   0.172149 
17   0.157673 
18   0.287669 
 
$$$$ 
 
