PCCDB-ID:  17470 
public computational chemistry database (PCCDB) project, http://pccdb.org 
 
 28 29  0  0  1  0  0  0  0  0999 V2000 
    1.3276    0.2085   -0.3276 C   0  0  0  0  0  0  0  0  0  0  0  0 
    5.4580   -1.1461    1.6101 C   0  0  0  0  0  0  0  0  0  0  0  0 
    3.9105   -1.2434    3.5939 C   0  0  0  0  0  0  0  0  0  0  0  0 
    3.6545    3.5671    1.6224 C   0  0  0  0  0  0  0  0  0  0  0  0 
    4.4036    3.1472    2.7247 C   0  0  0  0  0  0  0  0  0  0  0  0 
    3.0811    2.6281    0.7589 C   0  0  0  0  0  0  0  0  0  0  0  0 
    4.5881    1.7836    2.9756 C   0  0  0  0  0  0  0  0  0  0  0  0 
    2.9323   -1.0843    1.2289 C   0  0  0  0  0  0  0  0  0  0  0  0 
    2.7535    0.0762    0.2177 C   0  0  2  0  0  0  0  0  0  0  0  0 
    3.2609    1.2692    1.0120 C   0  0  0  0  0  0  0  0  0  0  0  0 
    4.0111    0.8473    2.1190 C   0  0  0  0  0  0  0  0  0  0  0  0 
    4.0986   -0.6766    2.1781 C   0  0  0  0  0  0  0  0  0  0  0  0 
    1.0235   -0.7072   -0.8484 H   0  0  0  0  0  0  0  0  0  0  0  0 
    1.2430    1.0363   -1.0413 H   0  0  0  0  0  0  0  0  0  0  0  0 
    0.6139    0.3902    0.4848 H   0  0  0  0  0  0  0  0  0  0  0  0 
    5.5166   -2.2418    1.6020 H   0  0  0  0  0  0  0  0  0  0  0  0 
    6.2882   -0.7672    2.2176 H   0  0  0  0  0  0  0  0  0  0  0  0 
    5.6094   -0.7898    0.5848 H   0  0  0  0  0  0  0  0  0  0  0  0 
    3.8825   -2.3399    3.5707 H   0  0  0  0  0  0  0  0  0  0  0  0 
    2.9750   -0.8888    4.0412 H   0  0  0  0  0  0  0  0  0  0  0  0 
    4.7335   -0.9503    4.2570 H   0  0  0  0  0  0  0  0  0  0  0  0 
    3.5131    4.6289    1.4373 H   0  0  0  0  0  0  0  0  0  0  0  0 
    4.8431    3.8839    3.3924 H   0  0  0  0  0  0  0  0  0  0  0  0 
    2.4968    2.9614   -0.0957 H   0  0  0  0  0  0  0  0  0  0  0  0 
    5.1700    1.4645    3.8372 H   0  0  0  0  0  0  0  0  0  0  0  0 
    3.1078   -2.0504    0.7412 H   0  0  0  0  0  0  0  0  0  0  0  0 
    2.0095   -1.1795    1.8178 H   0  0  0  0  0  0  0  0  0  0  0  0 
    3.4280   -0.0864   -0.6383 H   0  0  0  0  0  0  0  0  0  0  0  0 
  1  9  1  0  0  0  0 
  1 15  1  0  0  0  0 
  2 12  1  0  0  0  0 
  2 17  1  0  0  0  0 
  3 20  1  0  0  0  0 
  3 21  1  0  0  0  0 
  4  5  2  0  0  0  0 
  5  7  1  0  0  0  0 
  5 23  1  0  0  0  0 
  6 10  2  0  0  0  0 
  6  4  1  0  0  0  0 
  7 25  1  0  0  0  0 
  8 27  1  0  0  0  0 
  8 12  1  0  0  0  0 
  9 28  1  6  0  0  0 
  9 10  1  0  0  0  0 
  9  8  1  0  0  0  0 
 10 11  1  0  0  0  0 
 11 12  1  0  0  0  0 
 11  7  2  0  0  0  0 
 12  3  1  0  0  0  0 
 13  1  1  0  0  0  0 
 14  1  1  0  0  0  0 
 16  2  1  0  0  0  0 
 18  2  1  0  0  0  0 
 19  3  1  0  0  0  0 
 22  4  1  0  0  0  0 
 24  6  1  0  0  0  0 
 26  8  1  0  0  0  0 
M  END 
>  <HBA> 
0 
 
>  <HBD> 
0 
 
>  <TPSA> 
0.0 
 
>  <cid> 
17470 
 
>  <dipole> 
0.45 
 
>  <excitation_energy_1> 
5.173 
 
>  <excitation_energy_2> 
5.71 
 
>  <excitation_energy_3> 
5.869 
 
>  <excitation_energy_4> 
6.1 
 
>  <homo_energy> 
-6.196 
 
>  <homo_lumo_gap> 
6.319 
 
>  <logP> 
3.471 
 
>  <lumo_energy> 
0.122 
 
>  <melting_point> 
38.86 
 
>  <molecular_refractivity> 
53.37 
 
>  <oscillator_strength_1> 
0.019 
 
>  <oscillator_strength_2> 
0.025 
 
>  <oscillator_strength_3> 
0.0024 
 
>  <oscillator_strength_4> 
0.0443 
 
>  <open_babel_can_smiles> 
C[C@@H]1CC(c2c1cccc2)(C)C 
 
>  <mulliken_charges> 
28 
1   -0.449167 
2   -0.44387 
3   -0.454416 
4   -0.132471 
5   -0.133029 
6   -0.201127 
7   -0.201577 
8   -0.291426 
9   -0.156746 
10   0.127558 
11   0.123642 
12   0.026885 
13   0.143255 
14   0.14363 
15   0.147375 
16   0.13884 
17   0.143098 
18   0.14679 
19   0.140627 
20   0.146245 
21   0.140053 
22   0.123853 
23   0.123866 
24   0.121836 
25   0.121822 
26   0.129473 
27   0.135282 
28   0.139698 
 
>  <lowdin_charges> 
28 
1   -0.443465 
2   -0.437537 
3   -0.440159 
4   -0.158375 
5   -0.161597 
6   -0.166907 
7   -0.167115 
8   -0.275575 
9   -0.125224 
10   -0.016039 
11   -0.012576 
12   0.012579 
13   0.150681 
14   0.149206 
15   0.150525 
16   0.144071 
17   0.150239 
18   0.14958 
19   0.146698 
20   0.150858 
21   0.147734 
22   0.153505 
23   0.156442 
24   0.154737 
25   0.154446 
26   0.14305 
27   0.14444 
28   0.145779 
 
$$$$ 
 
