PCCDB-ID:  25706 
public computational chemistry database (PCCDB) project, http://pccdb.org 
 
 32 32  0  0  0  0  0  0  0  0999 V2000 
    5.2414    8.8711   -3.0156 C   0  0  0  0  0  0  0  0  0  0  0  0 
    5.5755    8.0494   -1.7665 C   0  0  0  0  0  0  0  0  0  0  0  0 
    5.5225    6.5353   -2.0096 C   0  0  0  0  0  0  0  0  0  0  0  0 
    5.8581    5.7112   -0.7593 C   0  0  0  0  0  0  0  0  0  0  0  0 
    6.3360    1.9695    2.4914 C   0  0  0  0  0  0  0  0  0  0  0  0 
    8.7297    2.0581    2.1875 C   0  0  0  0  0  0  0  0  0  0  0  0 
    6.5094    1.2271    3.6508 C   0  0  0  0  0  0  0  0  0  0  0  0 
    8.9112    1.3167    3.3444 C   0  0  0  0  0  0  0  0  0  0  0  0 
    5.7948    4.2105   -1.0265 C   0  0  0  0  0  0  0  0  0  0  0  0 
    7.4428    2.3964    1.7409 C   0  0  0  0  0  0  0  0  0  0  0  0 
    7.8009    0.8870    4.0979 C   0  0  0  0  0  0  0  0  0  0  0  0 
    7.3170    3.1851    0.4943 C   0  0  0  0  0  0  0  0  0  0  0  0 
    7.9784    0.1895    5.2853 N   0  0  0  0  0  0  0  0  0  0  0  0 
    8.2580    3.5624   -0.1818 O   0  0  0  0  0  0  0  0  0  0  0  0 
    6.0217    3.4432    0.1748 O   0  0  0  0  0  0  0  0  0  0  0  0 
    5.2859    9.9467   -2.8103 H   0  0  0  0  0  0  0  0  0  0  0  0 
    4.2327    8.6435   -3.3820 H   0  0  0  0  0  0  0  0  0  0  0  0 
    5.9444    8.6581   -3.8302 H   0  0  0  0  0  0  0  0  0  0  0  0 
    4.8776    8.3105   -0.9585 H   0  0  0  0  0  0  0  0  0  0  0  0 
    6.5769    8.3214   -1.4049 H   0  0  0  0  0  0  0  0  0  0  0  0 
    6.2218    6.2746   -2.8175 H   0  0  0  0  0  0  0  0  0  0  0  0 
    4.5200    6.2628   -2.3725 H   0  0  0  0  0  0  0  0  0  0  0  0 
    5.1596    5.9580    0.0514 H   0  0  0  0  0  0  0  0  0  0  0  0 
    6.8652    5.9620   -0.4061 H   0  0  0  0  0  0  0  0  0  0  0  0 
    5.3358    2.2221    2.1574 H   0  0  0  0  0  0  0  0  0  0  0  0 
    9.5828    2.3878    1.6034 H   0  0  0  0  0  0  0  0  0  0  0  0 
    5.6434    0.9047    4.2247 H   0  0  0  0  0  0  0  0  0  0  0  0 
    9.9149    1.0643    3.6789 H   0  0  0  0  0  0  0  0  0  0  0  0 
    6.5309    3.9164   -1.7796 H   0  0  0  0  0  0  0  0  0  0  0  0 
    4.7966    3.9104   -1.3592 H   0  0  0  0  0  0  0  0  0  0  0  0 
    7.1907   -0.3621    5.5994 H   0  0  0  0  0  0  0  0  0  0  0  0 
    8.8590   -0.2980    5.3873 H   0  0  0  0  0  0  0  0  0  0  0  0 
  1 16  1  0  0  0  0 
  1  2  1  0  0  0  0 
  2 20  1  0  0  0  0 
  2 19  1  0  0  0  0 
  3  2  1  0  0  0  0 
  3  4  1  0  0  0  0 
  4 24  1  0  0  0  0 
  4 23  1  0  0  0  0 
  5  7  2  0  0  0  0 
  6  8  1  0  0  0  0 
  7 11  1  0  0  0  0 
  7 27  1  0  0  0  0 
  8 28  1  0  0  0  0 
  8 11  2  0  0  0  0 
  9  4  1  0  0  0  0 
  9 15  1  0  0  0  0 
 10  6  2  0  0  0  0 
 10  5  1  0  0  0  0 
 11 13  1  0  0  0  0 
 12 10  1  0  0  0  0 
 13 32  1  0  0  0  0 
 13 31  1  0  0  0  0 
 14 12  2  0  0  0  0 
 15 12  1  0  0  0  0 
 17  1  1  0  0  0  0 
 18  1  1  0  0  0  0 
 21  3  1  0  0  0  0 
 22  3  1  0  0  0  0 
 25  5  1  0  0  0  0 
 26  6  1  0  0  0  0 
 29  9  1  0  0  0  0 
 30  9  1  0  0  0  0 
M  END 
>  <HBA> 
3 
 
>  <HBD> 
1 
 
>  <TPSA> 
52.32 
 
>  <cid> 
25706 
 
>  <dipole> 
3.33 
 
>  <excitation_energy_1> 
4.676 
 
>  <excitation_energy_2> 
4.715 
 
>  <excitation_energy_3> 
4.941 
 
>  <excitation_energy_4> 
5.02 
 
>  <homo_energy> 
-5.712 
 
>  <homo_lumo_gap> 
5.031 
 
>  <logP> 
3.197 
 
>  <lumo_energy> 
-0.68 
 
>  <melting_point> 
76.76 
 
>  <molecular_refractivity> 
61.35 
 
>  <oscillator_strength_1> 
0.4699 
 
>  <oscillator_strength_2> 
0.01 
 
>  <oscillator_strength_3> 
0.0152 
 
>  <oscillator_strength_4> 
0.0001 
 
>  <open_babel_can_smiles> 
CCCCCOC(=O)c1ccc(cc1)N 
 
>  <mulliken_charges> 
32 
1   -0.442436 
2   -0.246177 
3   -0.257347 
4   -0.27757 
5   -0.16749 
6   -0.161731 
7   -0.181325 
8   -0.182543 
9   -0.038955 
10   0.04472 
11   0.333514 
12   0.588908 
13   -0.789867 
14   -0.506393 
15   -0.490052 
16   0.142786 
17   0.140663 
18   0.143059 
19   0.131446 
20   0.136119 
21   0.135916 
22   0.126468 
23   0.138668 
24   0.161132 
25   0.152715 
26   0.159664 
27   0.121203 
28   0.122993 
29   0.165327 
30   0.142951 
31   0.326588 
32   0.327043 
 
>  <lowdin_charges> 
32 
1   -0.442719 
2   -0.270749 
3   -0.274679 
4   -0.287115 
5   -0.126634 
6   -0.119799 
7   -0.20555 
8   -0.202879 
9   -0.132259 
10   -0.07523 
11   0.077976 
12   0.199267 
13   -0.477314 
14   -0.288236 
15   -0.199921 
16   0.148161 
17   0.145216 
18   0.147729 
19   0.140232 
20   0.141364 
21   0.142329 
22   0.136325 
23   0.145318 
24   0.155559 
25   0.170635 
26   0.176798 
27   0.155416 
28   0.154878 
29   0.157643 
30   0.147064 
31   0.280876 
32   0.280296 
 
$$$$ 
 
