PCCDB-ID:  38566 
public computational chemistry database (PCCDB) project, http://pccdb.org 
 
 32 32  0  0  0  0  0  0  0  0999 V2000 
    1.5079    0.3297    0.6898 C   0  0  0  0  0  0  0  0  0  0  0  0 
    2.1066   -3.9061    0.7762 C   0  0  0  0  0  0  0  0  0  0  0  0 
    4.5457   -3.8367    0.1879 C   0  0  0  0  0  0  0  0  0  0  0  0 
    3.6765   -2.5072    2.1638 C   0  0  0  0  0  0  0  0  0  0  0  0 
    5.0972    1.7500    0.0371 C   0  0  0  0  0  0  0  0  0  0  0  0 
    5.4963    0.7387   -1.0409 C   0  0  0  0  0  0  0  0  0  0  0  0 
    3.5745    1.7579    0.2203 C   0  0  0  0  0  0  0  0  0  0  0  0 
    5.0677   -0.6739   -0.6227 C   0  0  0  0  0  0  0  0  0  0  0  0 
    2.9511    0.3763    0.2609 C   0  0  0  0  0  0  0  0  0  0  0  0 
    3.6432   -0.7181   -0.1041 C   0  0  0  0  0  0  0  0  0  0  0  0 
    3.3663   -3.0322    0.7579 C   0  0  0  0  0  0  0  0  0  0  0  0 
    3.0057   -1.9485   -0.1505 O   0  0  0  0  0  0  0  0  0  0  0  0 
    1.3974    0.6426    1.7384 H   0  0  0  0  0  0  0  0  0  0  0  0 
    1.0832   -0.6689    0.5773 H   0  0  0  0  0  0  0  0  0  0  0  0 
    0.9057    1.0305    0.0940 H   0  0  0  0  0  0  0  0  0  0  0  0 
    2.2573   -4.7998    1.3919 H   0  0  0  0  0  0  0  0  0  0  0  0 
    1.8542   -4.2245   -0.2405 H   0  0  0  0  0  0  0  0  0  0  0  0 
    1.2567   -3.3456    1.1784 H   0  0  0  0  0  0  0  0  0  0  0  0 
    4.6944   -4.7552    0.7678 H   0  0  0  0  0  0  0  0  0  0  0  0 
    5.4814   -3.2717    0.2149 H   0  0  0  0  0  0  0  0  0  0  0  0 
    4.3422   -4.1167   -0.8510 H   0  0  0  0  0  0  0  0  0  0  0  0 
    3.8712   -3.3471    2.8403 H   0  0  0  0  0  0  0  0  0  0  0  0 
    2.8325   -1.9342    2.5607 H   0  0  0  0  0  0  0  0  0  0  0  0 
    4.5598   -1.8606    2.1695 H   0  0  0  0  0  0  0  0  0  0  0  0 
    5.4520    2.7562   -0.2173 H   0  0  0  0  0  0  0  0  0  0  0  0 
    5.5806    1.4743    0.9852 H   0  0  0  0  0  0  0  0  0  0  0  0 
    6.5773    0.7651   -1.2256 H   0  0  0  0  0  0  0  0  0  0  0  0 
    5.0055    1.0059   -1.9872 H   0  0  0  0  0  0  0  0  0  0  0  0 
    3.1055    2.3360   -0.5933 H   0  0  0  0  0  0  0  0  0  0  0  0 
    3.3098    2.2948    1.1430 H   0  0  0  0  0  0  0  0  0  0  0  0 
    5.7650   -1.0480    0.1429 H   0  0  0  0  0  0  0  0  0  0  0  0 
    5.1454   -1.3690   -1.4678 H   0  0  0  0  0  0  0  0  0  0  0  0 
  1 13  1  0  0  0  0 
  2 18  1  0  0  0  0 
  2 16  1  0  0  0  0 
  3 20  1  0  0  0  0 
  3 11  1  0  0  0  0 
  3 19  1  0  0  0  0 
  4 24  1  0  0  0  0 
  4 23  1  0  0  0  0 
  4 22  1  0  0  0  0 
  5  7  1  0  0  0  0 
  5 26  1  0  0  0  0 
  6  8  1  0  0  0  0 
  6  5  1  0  0  0  0 
  7  9  1  0  0  0  0 
  7 30  1  0  0  0  0 
  8 10  1  0  0  0  0 
  8 31  1  0  0  0  0 
  9  1  1  0  0  0  0 
 10  9  2  0  0  0  0 
 11  2  1  0  0  0  0 
 11  4  1  0  0  0  0 
 12 10  1  0  0  0  0 
 12 11  1  0  0  0  0 
 14  1  1  0  0  0  0 
 15  1  1  0  0  0  0 
 17  2  1  0  0  0  0 
 21  3  1  0  0  0  0 
 25  5  1  0  0  0  0 
 27  6  1  0  0  0  0 
 28  6  1  0  0  0  0 
 29  7  1  0  0  0  0 
 32  8  1  0  0  0  0 
M  END 
>  <HBA> 
1 
 
>  <HBD> 
0 
 
>  <TPSA> 
9.23 
 
>  <cid> 
38566 
 
>  <dipole> 
1.16 
 
>  <excitation_energy_1> 
5.152 
 
>  <excitation_energy_2> 
5.498 
 
>  <excitation_energy_3> 
5.612 
 
>  <excitation_energy_4> 
5.802 
 
>  <homo_energy> 
-5.622 
 
>  <homo_lumo_gap> 
6.702 
 
>  <logP> 
3.65 
 
>  <lumo_energy> 
1.08 
 
>  <melting_point> 
11.4 
 
>  <molecular_refractivity> 
53.53 
 
>  <oscillator_strength_1> 
0.0088 
 
>  <oscillator_strength_2> 
0.0103 
 
>  <oscillator_strength_3> 
0.0022 
 
>  <oscillator_strength_4> 
0.0006 
 
>  <open_babel_can_smiles> 
CC1=C(CCCC1)OC(C)(C)C 
 
>  <mulliken_charges> 
32 
1   -0.517355 
2   -0.444732 
3   -0.45026 
4   -0.464103 
5   -0.263848 
6   -0.26555 
7   -0.31852 
8   -0.334361 
9   0.108425 
10   0.310679 
11   0.316843 
12   -0.552001 
13   0.142231 
14   0.170902 
15   0.144585 
16   0.136001 
17   0.153236 
18   0.150212 
19   0.137764 
20   0.146007 
21   0.152063 
22   0.143674 
23   0.155876 
24   0.148945 
25   0.129917 
26   0.132088 
27   0.128899 
28   0.138341 
29   0.138761 
30   0.13519 
31   0.140002 
32   0.15009 
 
>  <lowdin_charges> 
32 
1   -0.443523 
2   -0.444568 
3   -0.455136 
4   -0.455557 
5   -0.275313 
6   -0.271732 
7   -0.27349 
8   -0.289858 
9   -0.052434 
10   0.060293 
11   0.141152 
12   -0.243728 
13   0.148025 
14   0.163202 
15   0.152687 
16   0.148916 
17   0.156045 
18   0.154417 
19   0.150736 
20   0.151574 
21   0.154852 
22   0.155209 
23   0.158709 
24   0.154166 
25   0.142963 
26   0.139385 
27   0.141003 
28   0.142772 
29   0.144918 
30   0.146101 
31   0.143132 
32   0.155084 
 
$$$$ 
 
