PCCDB-ID:  19965 
public computational chemistry database (PCCDB) project, http://pccdb.org 
 
 19 18  0  0  0  0  0  0  0  0999 V2000 
    2.2426    0.1761   -1.2212 C   0  0  0  0  0  0  0  0  0  0  0  0 
    5.4913   -4.2513    0.0573 C   0  0  0  0  0  0  0  0  0  0  0  0 
    4.2622   -3.9540    2.2002 C   0  0  0  0  0  0  0  0  0  0  0  0 
    2.7578   -0.2732   -0.0763 C   0  0  0  0  0  0  0  0  0  0  0  0 
    3.0064   -1.7191    0.2560 C   0  0  0  0  0  0  0  0  0  0  0  0 
    4.5040   -2.0145    0.5184 C   0  0  0  0  0  0  0  0  0  0  0  0 
    4.7926   -3.4579    0.8761 C   0  0  0  0  0  0  0  0  0  0  0  0 
    2.0912    1.2365   -1.4050 H   0  0  0  0  0  0  0  0  0  0  0  0 
    1.9477   -0.5023   -2.0196 H   0  0  0  0  0  0  0  0  0  0  0  0 
    5.7036   -5.2882    0.3071 H   0  0  0  0  0  0  0  0  0  0  0  0 
    5.8789   -3.8926   -0.8932 H   0  0  0  0  0  0  0  0  0  0  0  0 
    4.5584   -4.9903    2.3889 H   0  0  0  0  0  0  0  0  0  0  0  0 
    3.1662   -3.9058    2.2435 H   0  0  0  0  0  0  0  0  0  0  0  0 
    4.6342   -3.3358    3.0291 H   0  0  0  0  0  0  0  0  0  0  0  0 
    3.0417    0.4461    0.6947 H   0  0  0  0  0  0  0  0  0  0  0  0 
    2.6485   -2.3583   -0.5606 H   0  0  0  0  0  0  0  0  0  0  0  0 
    2.4243   -1.9897    1.1487 H   0  0  0  0  0  0  0  0  0  0  0  0 
    4.8501   -1.3607    1.3340 H   0  0  0  0  0  0  0  0  0  0  0  0 
    5.0766   -1.7331   -0.3729 H   0  0  0  0  0  0  0  0  0  0  0  0 
  1  4  2  0  0  0  0 
  2 10  1  0  0  0  0 
  2  7  2  0  0  0  0 
  3 13  1  0  0  0  0 
  3 12  1  0  0  0  0 
  3 14  1  0  0  0  0 
  4  5  1  0  0  0  0 
  4 15  1  0  0  0  0 
  5  6  1  0  0  0  0 
  5 17  1  0  0  0  0 
  6  7  1  0  0  0  0 
  6 18  1  0  0  0  0 
  7  3  1  0  0  0  0 
  8  1  1  0  0  0  0 
  9  1  1  0  0  0  0 
 11  2  1  0  0  0  0 
 16  5  1  0  0  0  0 
 19  6  1  0  0  0  0 
M  END 
>  <HBA> 
0 
 
>  <HBD> 
0 
 
>  <TPSA> 
0.0 
 
>  <cid> 
19965 
 
>  <dipole> 
0.49 
 
>  <excitation_energy_1> 
6.056 
 
>  <excitation_energy_2> 
6.167 
 
>  <excitation_energy_3> 
6.366 
 
>  <excitation_energy_4> 
6.47 
 
>  <homo_energy> 
-6.465 
 
>  <homo_lumo_gap> 
6.993 
 
>  <logP> 
2.529 
 
>  <lumo_energy> 
0.528 
 
>  <melting_point> 
-65.0 
 
>  <molecular_refractivity> 
34.81 
 
>  <oscillator_strength_1> 
0.0117 
 
>  <oscillator_strength_2> 
0.1273 
 
>  <oscillator_strength_3> 
0.046 
 
>  <oscillator_strength_4> 
0.0828 
 
>  <open_babel_can_smiles> 
C=CCCC(=C)C 
 
>  <mulliken_charges> 
19 
1   -0.340592 
2   -0.399984 
3   -0.514273 
4   -0.041407 
5   -0.303432 
6   -0.328062 
7   0.236412 
8   0.13773 
9   0.135087 
10   0.130215 
11   0.131907 
12   0.153731 
13   0.156888 
14   0.151436 
15   0.122892 
16   0.144912 
17   0.143989 
18   0.135723 
19   0.146828 
 
>  <lowdin_charges> 
19 
1   -0.343078 
2   -0.362426 
3   -0.440748 
4   -0.146076 
5   -0.272596 
6   -0.272486 
7   0.009067 
8   0.156239 
9   0.154847 
10   0.151686 
11   0.153342 
12   0.156307 
13   0.153719 
14   0.155428 
15   0.149133 
16   0.150762 
17   0.149246 
18   0.145493 
19   0.15214 
 
$$$$ 
 
