PCCDB-ID:  38773 
public computational chemistry database (PCCDB) project, http://pccdb.org 
 
 27 28  0  0  0  0  0  0  0  0999 V2000 
    0.7412   -0.1516    0.0823 C   0  0  0  0  0  0  0  0  0  0  0  0 
    6.9639   -0.1639   -1.7993 C   0  0  0  0  0  0  0  0  0  0  0  0 
    2.9862   -1.3119   -0.1425 C   0  0  0  0  0  0  0  0  0  0  0  0 
    2.9672    1.0649    0.1259 C   0  0  0  0  0  0  0  0  0  0  0  0 
    4.3765   -1.2950   -0.2124 C   0  0  0  0  0  0  0  0  0  0  0  0 
    4.3613    1.0876    0.0501 C   0  0  0  0  0  0  0  0  0  0  0  0 
    7.4981    0.7170    2.1030 C   0  0  0  0  0  0  0  0  0  0  0  0 
    8.1164   -0.6785    2.0244 C   0  0  0  0  0  0  0  0  0  0  0  0 
    2.2509   -0.1314    0.0290 C   0  0  0  0  0  0  0  0  0  0  0  0 
    5.0958   -0.0932   -0.1148 C   0  0  0  0  0  0  0  0  0  0  0  0 
    6.6232   -0.0920   -0.2987 C   0  0  0  0  0  0  0  0  0  0  0  0 
    7.4607    1.3999    0.4090 S   0  0  0  0  0  0  0  0  0  0  0  0 
    7.4253   -1.5675    0.5642 S   0  0  0  0  0  0  0  0  0  0  0  0 
    0.3682   -1.0674    0.5539 H   0  0  0  0  0  0  0  0  0  0  0  0 
    0.3063   -0.1066   -0.9254 H   0  0  0  0  0  0  0  0  0  0  0  0 
    0.3479    0.7024    0.6438 H   0  0  0  0  0  0  0  0  0  0  0  0 
    6.5217    0.6905   -2.3244 H   0  0  0  0  0  0  0  0  0  0  0  0 
    6.5411   -1.0736   -2.2381 H   0  0  0  0  0  0  0  0  0  0  0  0 
    8.0455   -0.1654   -1.9554 H   0  0  0  0  0  0  0  0  0  0  0  0 
    2.4634   -2.2635   -0.2138 H   0  0  0  0  0  0  0  0  0  0  0  0 
    2.4306    2.0009    0.2663 H   0  0  0  0  0  0  0  0  0  0  0  0 
    4.9095   -2.2341   -0.3260 H   0  0  0  0  0  0  0  0  0  0  0  0 
    4.8827    2.0355    0.1316 H   0  0  0  0  0  0  0  0  0  0  0  0 
    8.0984    1.3871    2.7263 H   0  0  0  0  0  0  0  0  0  0  0  0 
    6.4808    0.6779    2.5045 H   0  0  0  0  0  0  0  0  0  0  0  0 
    7.8875   -1.2598    2.9235 H   0  0  0  0  0  0  0  0  0  0  0  0 
    9.2017   -0.6128    1.9113 H   0  0  0  0  0  0  0  0  0  0  0  0 
  1 14  1  0  0  0  0 
  1 16  1  0  0  0  0 
  2 11  1  0  0  0  0 
  3  9  1  0  0  0  0 
  4 21  1  0  0  0  0 
  5  3  2  0  0  0  0 
  5 10  1  0  0  0  0 
  6  4  1  0  0  0  0 
  6 23  1  0  0  0  0 
  7 25  1  0  0  0  0 
  7 24  1  0  0  0  0 
  8  7  1  0  0  0  0 
  8 26  1  0  0  0  0 
  9  1  1  0  0  0  0 
  9  4  2  0  0  0  0 
 10  6  2  0  0  0  0 
 11 10  1  0  0  0  0 
 11 12  1  0  0  0  0 
 11 13  1  0  0  0  0 
 12  7  1  0  0  0  0 
 13  8  1  0  0  0  0 
 15  1  1  0  0  0  0 
 17  2  1  0  0  0  0 
 18  2  1  0  0  0  0 
 19  2  1  0  0  0  0 
 20  3  1  0  0  0  0 
 22  5  1  0  0  0  0 
 27  8  1  0  0  0  0 
M  END 
>  <HBA> 
2 
 
>  <HBD> 
0 
 
>  <TPSA> 
50.6 
 
>  <cid> 
38773 
 
>  <dipole> 
1.44 
 
>  <excitation_energy_1> 
4.498 
 
>  <excitation_energy_2> 
4.856 
 
>  <excitation_energy_3> 
4.952 
 
>  <excitation_energy_4> 
5.016 
 
>  <homo_energy> 
-5.886 
 
>  <homo_lumo_gap> 
5.636 
 
>  <logP> 
3.648 
 
>  <lumo_energy> 
-0.25 
 
>  <melting_point> 
57.46 
 
>  <molecular_refractivity> 
63.75 
 
>  <oscillator_strength_1> 
0.0075 
 
>  <oscillator_strength_2> 
0.0144 
 
>  <oscillator_strength_3> 
0.01 
 
>  <oscillator_strength_4> 
0.001 
 
>  <open_babel_can_smiles> 
CC1(SCCS1)c1ccc(cc1)C 
 
>  <mulliken_charges> 
27 
1   -0.530167 
2   -0.437124 
3   -0.183121 
4   -0.183813 
5   -0.167014 
6   -0.181437 
7   -0.420387 
8   -0.406082 
9   0.181374 
10   0.177796 
11   -0.347818 
12   0.120617 
13   0.10086 
14   0.157457 
15   0.165652 
16   0.156293 
17   0.164251 
18   0.165364 
19   0.177664 
20   0.122069 
21   0.121088 
22   0.145475 
23   0.155414 
24   0.182854 
25   0.193484 
26   0.181471 
27   0.187776 
 
>  <lowdin_charges> 
27 
1   -0.443133 
2   -0.437825 
3   -0.167175 
4   -0.168953 
5   -0.158418 
6   -0.169303 
7   -0.376505 
8   -0.372013 
9   0.001366 
10   -0.023298 
11   -0.165962 
12   0.116333 
13   0.077907 
14   0.15871 
15   0.161342 
16   0.15845 
17   0.161621 
18   0.162386 
19   0.166073 
20   0.154685 
21   0.154273 
22   0.165794 
23   0.16916 
24   0.175581 
25   0.165963 
26   0.169159 
27   0.163783 
 
$$$$ 
 
