PCCDB-ID:  15835 
public computational chemistry database (PCCDB) project, http://pccdb.org 
 
 22 22  0  0  0  0  0  0  0  0999 V2000 
    0.5506   -0.1108    0.4244 C   0  0  0  0  0  0  0  0  0  0  0  0 
    2.8294   -1.2212    0.3138 C   0  0  0  0  0  0  0  0  0  0  0  0 
    2.6708    1.1157   -0.2238 C   0  0  0  0  0  0  0  0  0  0  0  0 
    4.1996   -1.1820    0.0661 C   0  0  0  0  0  0  0  0  0  0  0  0 
    4.0354    1.1598   -0.4716 C   0  0  0  0  0  0  0  0  0  0  0  0 
    6.2737   -0.0136   -0.5750 C   0  0  0  0  0  0  0  0  0  0  0  0 
    7.0710    1.0020   -0.9572 C   0  0  0  0  0  0  0  0  0  0  0  0 
    2.0385   -0.0758    0.1727 C   0  0  0  0  0  0  0  0  0  0  0  0 
    4.8342    0.0072   -0.3311 C   0  0  0  0  0  0  0  0  0  0  0  0 
    8.5233    0.7670   -1.1485 C   0  0  0  0  0  0  0  0  0  0  0  0 
    9.0779   -0.2978   -0.9938 O   0  0  0  0  0  0  0  0  0  0  0  0 
    9.2542    1.8571   -1.5260 O   0  0  0  0  0  0  0  0  0  0  0  0 
    0.2399   -1.0660    0.8584 H   0  0  0  0  0  0  0  0  0  0  0  0 
   -0.0128    0.0301   -0.5071 H   0  0  0  0  0  0  0  0  0  0  0  0 
    0.2420    0.6883    1.1089 H   0  0  0  0  0  0  0  0  0  0  0  0 
    2.3677   -2.1560    0.6223 H   0  0  0  0  0  0  0  0  0  0  0  0 
    2.0780    2.0205   -0.3385 H   0  0  0  0  0  0  0  0  0  0  0  0 
    4.7934   -2.0852    0.1838 H   0  0  0  0  0  0  0  0  0  0  0  0 
    4.4873    2.0999   -0.7754 H   0  0  0  0  0  0  0  0  0  0  0  0 
    6.7687   -0.9731   -0.4293 H   0  0  0  0  0  0  0  0  0  0  0  0 
    6.6767    2.0019   -1.1301 H   0  0  0  0  0  0  0  0  0  0  0  0 
    8.6776    2.6335   -1.6111 H   0  0  0  0  0  0  0  0  0  0  0  0 
  1 13  1  0  0  0  0 
  1 15  1  0  0  0  0 
  2 16  1  0  0  0  0 
  3  8  2  0  0  0  0 
  4 18  1  0  0  0  0 
  4  2  2  0  0  0  0 
  5  9  2  0  0  0  0 
  5  3  1  0  0  0  0 
  6 20  1  0  0  0  0 
  6  9  1  0  0  0  0 
  7  6  2  0  0  0  0 
  8  2  1  0  0  0  0 
  8  1  1  0  0  0  0 
  9  4  1  0  0  0  0 
 10 11  2  0  0  0  0 
 10  7  1  0  0  0  0 
 12 10  1  0  0  0  0 
 14  1  1  0  0  0  0 
 17  3  1  0  0  0  0 
 19  5  1  0  0  0  0 
 21  7  1  0  0  0  0 
 22 12  1  0  0  0  0 
M  END 
>  <HBA> 
2 
 
>  <HBD> 
1 
 
>  <TPSA> 
37.3 
 
>  <cid> 
15835 
 
>  <dipole> 
5.86 
 
>  <excitation_energy_1> 
4.262 
 
>  <excitation_energy_2> 
4.291 
 
>  <excitation_energy_3> 
4.483 
 
>  <excitation_energy_4> 
5.428 
 
>  <homo_energy> 
-6.384 
 
>  <homo_lumo_gap> 
4.536 
 
>  <logP> 
2.093 
 
>  <lumo_energy> 
-1.848 
 
>  <melting_point> 
108.17 
 
>  <molecular_refractivity> 
48.08 
 
>  <oscillator_strength_1> 
0.6827 
 
>  <oscillator_strength_2> 
0.0046 
 
>  <oscillator_strength_3> 
0.008 
 
>  <oscillator_strength_4> 
0.1337 
 
>  <open_babel_can_smiles> 
OC(=O)/C=C/c1ccc(cc1)C 
 
>  <mulliken_charges> 
22 
1   -0.532581 
2   -0.184809 
3   -0.177342 
4   -0.184073 
5   -0.170284 
6   -0.14521 
7   -0.247267 
8   0.182313 
9   0.164628 
10   0.608585 
11   -0.462728 
12   -0.585496 
13   0.160928 
14   0.170255 
15   0.166354 
16   0.132187 
17   0.129852 
18   0.14331 
19   0.129858 
20   0.173915 
21   0.122466 
22   0.405139 
 
>  <lowdin_charges> 
22 
1   -0.44346 
2   -0.165905 
3   -0.162224 
4   -0.1445 
5   -0.144637 
6   -0.091636 
7   -0.237821 
8   0.015041 
9   -0.015283 
10   0.19458 
11   -0.256127 
12   -0.362439 
13   0.160086 
14   0.165553 
15   0.164391 
16   0.1597 
17   0.158746 
18   0.164225 
19   0.157873 
20   0.179675 
21   0.149333 
22   0.354831 
 
$$$$ 
 
