PCCDB-ID:  60995 
public computational chemistry database (PCCDB) project, http://pccdb.org 
 
 26 26  0  0  0  0  0  0  0  0999 V2000 
    3.3571   -1.1364   -0.7077 C   0  0  0  0  0  0  0  0  0  0  0  0 
    2.5701    0.7086   -3.6172 C   0  0  0  0  0  0  0  0  0  0  0  0 
   -2.6410    2.9107   -2.5727 C   0  0  0  0  0  0  0  0  0  0  0  0 
   -2.4851    2.0544   -1.4805 C   0  0  0  0  0  0  0  0  0  0  0  0 
   -1.5112    3.4387   -3.1976 C   0  0  0  0  0  0  0  0  0  0  0  0 
   -1.2090    1.7296   -1.0221 C   0  0  0  0  0  0  0  0  0  0  0  0 
   -0.2360    3.1074   -2.7356 C   0  0  0  0  0  0  0  0  0  0  0  0 
    1.3166    1.8807   -1.1435 C   0  0  0  0  0  0  0  0  0  0  0  0 
   -0.0637    2.2460   -1.6457 C   0  0  0  0  0  0  0  0  0  0  0  0 
    1.6997    0.4127   -1.3956 C   0  0  0  0  0  0  0  0  0  0  0  0 
    2.9617    0.2255   -0.7947 O   0  0  0  0  0  0  0  0  0  0  0  0 
    1.6814    0.0145   -2.7498 O   0  0  0  0  0  0  0  0  0  0  0  0 
    4.3384   -1.1484   -0.2268 H   0  0  0  0  0  0  0  0  0  0  0  0 
    3.4279   -1.6032   -1.6972 H   0  0  0  0  0  0  0  0  0  0  0  0 
    2.6497   -1.7163   -0.0953 H   0  0  0  0  0  0  0  0  0  0  0  0 
    2.6074    0.1281   -4.5424 H   0  0  0  0  0  0  0  0  0  0  0  0 
    3.5782    0.7782   -3.1920 H   0  0  0  0  0  0  0  0  0  0  0  0 
    2.2087    1.7180   -3.8537 H   0  0  0  0  0  0  0  0  0  0  0  0 
   -3.6349    3.1676   -2.9294 H   0  0  0  0  0  0  0  0  0  0  0  0 
   -3.3587    1.6435   -0.9809 H   0  0  0  0  0  0  0  0  0  0  0  0 
   -1.6202    4.1128   -4.0433 H   0  0  0  0  0  0  0  0  0  0  0  0 
   -1.1004    1.0708   -0.1628 H   0  0  0  0  0  0  0  0  0  0  0  0 
    0.6383    3.5326   -3.2236 H   0  0  0  0  0  0  0  0  0  0  0  0 
    1.3813    2.0328   -0.0596 H   0  0  0  0  0  0  0  0  0  0  0  0 
    2.0773    2.5298   -1.5900 H   0  0  0  0  0  0  0  0  0  0  0  0 
    0.9594   -0.2545   -0.9298 H   0  0  0  0  0  0  0  0  0  0  0  0 
  1 13  1  0  0  0  0 
  1 15  1  0  0  0  0 
  2 17  1  0  0  0  0 
  2 12  1  0  0  0  0 
  3  4  2  0  0  0  0 
  4  6  1  0  0  0  0 
  4 20  1  0  0  0  0 
  5  7  2  0  0  0  0 
  5  3  1  0  0  0  0 
  6 22  1  0  0  0  0 
  7  9  1  0  0  0  0 
  8 24  1  0  0  0  0 
  9  8  1  0  0  0  0 
  9  6  2  0  0  0  0 
 10  8  1  0  0  0  0 
 10 26  1  0  0  0  0 
 10 11  1  0  0  0  0 
 11  1  1  0  0  0  0 
 12 10  1  0  0  0  0 
 14  1  1  0  0  0  0 
 16  2  1  0  0  0  0 
 18  2  1  0  0  0  0 
 19  3  1  0  0  0  0 
 21  5  1  0  0  0  0 
 23  7  1  0  0  0  0 
 25  8  1  0  0  0  0 
M  END 
>  <HBA> 
2 
 
>  <HBD> 
0 
 
>  <TPSA> 
18.46 
 
>  <cid> 
60995 
 
>  <dipole> 
0.4 
 
>  <excitation_energy_1> 
5.291 
 
>  <excitation_energy_2> 
5.861 
 
>  <excitation_energy_3> 
6.023 
 
>  <excitation_energy_4> 
6.206 
 
>  <homo_energy> 
-6.449 
 
>  <homo_lumo_gap> 
6.487 
 
>  <logP> 
1.848 
 
>  <lumo_energy> 
0.038 
 
>  <melting_point> 
-12.74 
 
>  <molecular_refractivity> 
48.0 
 
>  <oscillator_strength_1> 
0.0016 
 
>  <oscillator_strength_2> 
0.0389 
 
>  <oscillator_strength_3> 
0.0016 
 
>  <oscillator_strength_4> 
0.0052 
 
>  <open_babel_can_smiles> 
COC(Cc1ccccc1)OC 
 
>  <mulliken_charges> 
26 
1   -0.205353 
2   -0.216752 
3   -0.130692 
4   -0.126663 
5   -0.126876 
6   -0.178931 
7   -0.187971 
8   -0.401019 
9   0.192444 
10   0.365764 
11   -0.473397 
12   -0.468407 
13   0.156901 
14   0.152828 
15   0.133381 
16   0.15677 
17   0.151244 
18   0.138413 
19   0.12766 
20   0.128195 
21   0.127712 
22   0.122595 
23   0.122346 
24   0.163181 
25   0.154536 
26   0.122092 
 
>  <lowdin_charges> 
26 
1   -0.283229 
2   -0.286868 
3   -0.160028 
4   -0.154754 
5   -0.153949 
6   -0.164349 
7   -0.167424 
8   -0.293008 
9   0.0023 
10   0.095934 
11   -0.26933 
12   -0.267757 
13   0.154472 
14   0.144062 
15   0.136578 
16   0.155919 
17   0.142768 
18   0.134936 
19   0.156464 
20   0.157771 
21   0.15694 
22   0.153226 
23   0.15338 
24   0.163922 
25   0.15911 
26   0.132915 
 
$$$$ 
 
