PCCDB-ID:  11908 
public computational chemistry database (PCCDB) project, http://pccdb.org 
 
 18 18  0  0  0  0  0  0  0  0999 V2000 
    0.9902   -0.1966   -0.0112 C   0  0  0  0  0  0  0  0  0  0  0  0 
    4.6289   -1.3692   -0.0337 C   0  0  0  0  0  0  0  0  0  0  0  0 
    5.3189   -0.1652   -0.1571 C   0  0  0  0  0  0  0  0  0  0  0  0 
    3.2334   -1.3606    0.0299 C   0  0  0  0  0  0  0  0  0  0  0  0 
    4.6079    1.0341   -0.1941 C   0  0  0  0  0  0  0  0  0  0  0  0 
    2.4981   -0.1740   -0.0321 C   0  0  0  0  0  0  0  0  0  0  0  0 
    3.2100    1.0397   -0.1387 C   0  0  0  0  0  0  0  0  0  0  0  0 
    2.5048    2.2674   -0.2892 N   0  0  0  0  0  0  0  0  0  0  0  0 
    1.7368    2.5716    0.9031 O   0  0  0  0  0  0  0  0  0  0  0  0 
    0.6135   -1.2124   -0.1662 H   0  0  0  0  0  0  0  0  0  0  0  0 
    0.5814    0.4452   -0.8019 H   0  0  0  0  0  0  0  0  0  0  0  0 
    0.5939    0.1714    0.9417 H   0  0  0  0  0  0  0  0  0  0  0  0 
    5.1689   -2.3110    0.0095 H   0  0  0  0  0  0  0  0  0  0  0  0 
    6.4042   -0.1527   -0.2070 H   0  0  0  0  0  0  0  0  0  0  0  0 
    2.6952   -2.3023    0.1126 H   0  0  0  0  0  0  0  0  0  0  0  0 
    5.1415    1.9800   -0.2676 H   0  0  0  0  0  0  0  0  0  0  0  0 
    3.1740    3.0340   -0.3452 H   0  0  0  0  0  0  0  0  0  0  0  0 
    0.8440    2.7013    0.5445 H   0  0  0  0  0  0  0  0  0  0  0  0 
  1 12  1  0  0  0  0 
  2 13  1  0  0  0  0 
  2  4  2  0  0  0  0 
  3  2  1  0  0  0  0 
  4 15  1  0  0  0  0 
  5  3  2  0  0  0  0 
  5  7  1  0  0  0  0 
  6  1  1  0  0  0  0 
  6  4  1  0  0  0  0 
  7  6  2  0  0  0  0 
  8  7  1  0  0  0  0 
  8  9  1  0  0  0  0 
 10  1  1  0  0  0  0 
 11  1  1  0  0  0  0 
 14  3  1  0  0  0  0 
 16  5  1  0  0  0  0 
 17  8  1  0  0  0  0 
 18  9  1  0  0  0  0 
M  END 
>  <HBA> 
2 
 
>  <HBD> 
2 
 
>  <TPSA> 
32.26 
 
>  <cid> 
11908 
 
>  <dipole> 
0.72 
 
>  <excitation_energy_1> 
4.917 
 
>  <excitation_energy_2> 
5.021 
 
>  <excitation_energy_3> 
5.479 
 
>  <excitation_energy_4> 
5.753 
 
>  <homo_energy> 
-5.826 
 
>  <homo_lumo_gap> 
5.788 
 
>  <logP> 
1.869 
 
>  <lumo_energy> 
-0.038 
 
>  <melting_point> 
97.28 
 
>  <molecular_refractivity> 
36.64 
 
>  <oscillator_strength_1> 
0.0083 
 
>  <oscillator_strength_2> 
0.1294 
 
>  <oscillator_strength_3> 
0.0156 
 
>  <oscillator_strength_4> 
0.001 
 
>  <open_babel_can_smiles> 
ONc1ccccc1C 
 
>  <mulliken_charges> 
18 
1   -0.537561 
2   -0.122029 
3   -0.139756 
4   -0.200856 
5   -0.180373 
6   0.183614 
7   0.267356 
8   -0.457595 
9   -0.522545 
10   0.149347 
11   0.159535 
12   0.17 
13   0.126066 
14   0.12813 
15   0.122289 
16   0.121157 
17   0.323457 
18   0.409765 
 
>  <lowdin_charges> 
18 
1   -0.44495 
2   -0.165506 
3   -0.154649 
4   -0.162612 
5   -0.184356 
6   -0.002888 
7   0.026838 
8   -0.207357 
9   -0.41561 
10   0.15382 
11   0.160128 
12   0.16336 
13   0.15725 
14   0.155471 
15   0.154821 
16   0.153436 
17   0.264816 
18   0.347989 
 
$$$$ 
 
