PCCDB-ID:  24150 
public computational chemistry database (PCCDB) project, http://pccdb.org 
 
 17 17  0  0  1  0  0  0  0  0999 V2000 
    1.1655   -0.6123    0.6123 C   0  0  0  0  0  0  0  0  0  0  0  0 
    2.0166    0.0099   -0.2019 C   0  0  0  0  0  0  0  0  0  0  0  0 
    2.5249   -0.0923   -2.7118 C   0  0  0  0  0  0  0  0  0  0  0  0 
    2.7171   -1.3259   -3.6099 C   0  0  0  0  0  0  0  0  0  0  0  0 
    2.8316   -0.6537   -1.2815 C   0  0  2  0  0  0  0  0  0  0  0  0 
    2.5755   -2.4361   -2.5807 C   0  0  0  0  0  0  0  0  0  0  0  0 
    2.6264   -2.1066   -1.3549 N   0  0  0  0  0  0  0  0  0  0  0  0 
    2.4506   -3.7331   -2.9524 O   0  0  0  0  0  0  0  0  0  0  0  0 
    0.6025   -0.0686    1.3663 H   0  0  0  0  0  0  0  0  0  0  0  0 
    1.0192   -1.6862    0.5505 H   0  0  0  0  0  0  0  0  0  0  0  0 
    2.1625    1.0883   -0.1203 H   0  0  0  0  0  0  0  0  0  0  0  0 
    1.4831    0.2431   -2.7539 H   0  0  0  0  0  0  0  0  0  0  0  0 
    3.1624    0.7530   -2.9864 H   0  0  0  0  0  0  0  0  0  0  0  0 
    3.7161   -1.3673   -4.0672 H   0  0  0  0  0  0  0  0  0  0  0  0 
    1.9837   -1.4025   -4.4225 H   0  0  0  0  0  0  0  0  0  0  0  0 
    3.8971   -0.4801   -1.0531 H   0  0  0  0  0  0  0  0  0  0  0  0 
    2.3705   -3.7762   -3.9173 H   0  0  0  0  0  0  0  0  0  0  0  0 
  1  9  1  0  0  0  0 
  2 11  1  0  0  0  0 
  2  1  2  0  0  0  0 
  3  5  1  0  0  0  0 
  4  3  1  0  0  0  0 
  4  6  1  0  0  0  0 
  5 16  1  1  0  0  0 
  5  2  1  0  0  0  0 
  6  7  2  0  0  0  0 
  7  5  1  0  0  0  0 
  8  6  1  0  0  0  0 
 10  1  1  0  0  0  0 
 12  3  1  0  0  0  0 
 13  3  1  0  0  0  0 
 14  4  1  0  0  0  0 
 15  4  1  0  0  0  0 
 17  8  1  0  0  0  0 
M  END 
>  <HBA> 
2 
 
>  <HBD> 
1 
 
>  <TPSA> 
29.1 
 
>  <cid> 
24150 
 
>  <dipole> 
3.92 
 
>  <excitation_energy_1> 
5.735 
 
>  <excitation_energy_2> 
6.071 
 
>  <excitation_energy_3> 
6.109 
 
>  <excitation_energy_4> 
6.139 
 
>  <homo_energy> 
-6.563 
 
>  <homo_lumo_gap> 
7.271 
 
>  <logP> 
0.78 
 
>  <lumo_energy> 
0.708 
 
>  <melting_point> 
23.99 
 
>  <molecular_refractivity> 
35.28 
 
>  <oscillator_strength_1> 
0.0025 
 
>  <oscillator_strength_2> 
0.0042 
 
>  <oscillator_strength_3> 
0.0026 
 
>  <oscillator_strength_4> 
0.0091 
 
>  <open_babel_can_smiles> 
OC1=N[C@@H](CC1)C=C 
 
>  <mulliken_charges> 
17 
1   -0.333321 
2   -0.075057 
3   -0.294779 
4   -0.375145 
5   -0.000291 
6   0.497392 
7   -0.423457 
8   -0.585246 
9   0.130864 
10   0.165249 
11   0.11934 
12   0.157981 
13   0.143307 
14   0.167619 
15   0.151879 
16   0.143009 
17   0.410657 
 
>  <lowdin_charges> 
17 
1   -0.334472 
2   -0.160708 
3   -0.287243 
4   -0.316451 
5   -0.057336 
6   0.114261 
7   -0.202477 
8   -0.350161 
9   0.15641 
10   0.16909 
11   0.146351 
12   0.153699 
13   0.152281 
14   0.160319 
15   0.154754 
16   0.143441 
17   0.358243 
 
$$$$ 
 
