PCCDB-ID:  30108 
public computational chemistry database (PCCDB) project, http://pccdb.org 
 
 32 33  0  0  0  0  0  0  0  0999 V2000 
    1.2658    0.8595    0.2669 C   0  0  0  0  0  0  0  0  0  0  0  0 
   -4.1947    0.5503    4.4096 C   0  0  0  0  0  0  0  0  0  0  0  0 
   -4.9342    1.7324    4.4778 C   0  0  0  0  0  0  0  0  0  0  0  0 
    0.4049   -0.2021   -0.4323 C   0  0  0  0  0  0  0  0  0  0  0  0 
    0.5951    1.3217    1.5684 C   0  0  0  0  0  0  0  0  0  0  0  0 
   -3.5195    0.2141    3.2363 C   0  0  0  0  0  0  0  0  0  0  0  0 
   -4.9885    2.5752    3.3714 C   0  0  0  0  0  0  0  0  0  0  0  0 
   -1.0266    0.2999   -0.6470 C   0  0  0  0  0  0  0  0  0  0  0  0 
   -0.8415    1.7945    1.3128 C   0  0  0  0  0  0  0  0  0  0  0  0 
   -3.5572    1.0554    2.1194 C   0  0  0  0  0  0  0  0  0  0  0  0 
   -4.2997    2.2512    2.1929 C   0  0  0  0  0  0  0  0  0  0  0  0 
   -2.9426    0.5371    0.8298 C   0  0  0  0  0  0  0  0  0  0  0  0 
   -4.3185    3.1781    1.0311 C   0  0  0  0  0  0  0  0  0  0  0  0 
   -1.6108    0.7639    0.6152 N   0  0  0  0  0  0  0  0  0  0  0  0 
   -3.6400   -0.1595    0.0993 O   0  0  0  0  0  0  0  0  0  0  0  0 
   -3.5641    3.1270    0.0787 O   0  0  0  0  0  0  0  0  0  0  0  0 
   -5.2734    4.1377    1.1319 O   0  0  0  0  0  0  0  0  0  0  0  0 
    1.3899    1.7239   -0.4020 H   0  0  0  0  0  0  0  0  0  0  0  0 
    2.2709    0.4706    0.4704 H   0  0  0  0  0  0  0  0  0  0  0  0 
   -4.1483   -0.1153    5.2673 H   0  0  0  0  0  0  0  0  0  0  0  0 
   -5.4672    1.9953    5.3869 H   0  0  0  0  0  0  0  0  0  0  0  0 
    0.3768   -1.1149    0.1780 H   0  0  0  0  0  0  0  0  0  0  0  0 
    0.8380   -0.4759   -1.4023 H   0  0  0  0  0  0  0  0  0  0  0  0 
    1.1643    2.1382    2.0301 H   0  0  0  0  0  0  0  0  0  0  0  0 
    0.5752    0.4921    2.2882 H   0  0  0  0  0  0  0  0  0  0  0  0 
   -2.9633   -0.7171    3.1773 H   0  0  0  0  0  0  0  0  0  0  0  0 
   -5.5601    3.4955    3.4111 H   0  0  0  0  0  0  0  0  0  0  0  0 
   -1.6794   -0.4798   -1.0403 H   0  0  0  0  0  0  0  0  0  0  0  0 
   -1.0316    1.1330   -1.3684 H   0  0  0  0  0  0  0  0  0  0  0  0 
   -0.8352    2.7116    0.7035 H   0  0  0  0  0  0  0  0  0  0  0  0 
   -1.3403    2.0325    2.2541 H   0  0  0  0  0  0  0  0  0  0  0  0 
   -5.1763    4.6871    0.3322 H   0  0  0  0  0  0  0  0  0  0  0  0 
  1 19  1  0  0  0  0 
  1  5  1  0  0  0  0 
  2  3  1  0  0  0  0 
  2 20  1  0  0  0  0 
  3 21  1  0  0  0  0 
  4 22  1  0  0  0  0 
  4  1  1  0  0  0  0 
  5 24  1  0  0  0  0 
  5 25  1  0  0  0  0 
  6  2  2  0  0  0  0 
  7 27  1  0  0  0  0 
  7  3  2  0  0  0  0 
  8  4  1  0  0  0  0 
  8 14  1  0  0  0  0 
  9  5  1  0  0  0  0 
  9 31  1  0  0  0  0 
 10 11  2  0  0  0  0 
 10  6  1  0  0  0  0 
 11  7  1  0  0  0  0 
 12 10  1  0  0  0  0 
 13 17  1  0  0  0  0 
 13 11  1  0  0  0  0 
 14 12  1  0  0  0  0 
 14  9  1  0  0  0  0 
 15 12  2  0  0  0  0 
 16 13  2  0  0  0  0 
 18  1  1  0  0  0  0 
 23  4  1  0  0  0  0 
 26  6  1  0  0  0  0 
 28  8  1  0  0  0  0 
 29  8  1  0  0  0  0 
 30  9  1  0  0  0  0 
 32 17  1  0  0  0  0 
M  END 
>  <HBA> 
4 
 
>  <HBD> 
1 
 
>  <TPSA> 
57.61 
 
>  <cid> 
30108 
 
>  <dipole> 
3.78 
 
>  <excitation_energy_1> 
3.957 
 
>  <excitation_energy_2> 
4.237 
 
>  <excitation_energy_3> 
4.864 
 
>  <excitation_energy_4> 
4.923 
 
>  <homo_energy> 
-6.18 
 
>  <homo_lumo_gap> 
4.767 
 
>  <logP> 
1.949 
 
>  <lumo_energy> 
-1.412 
 
>  <melting_point> 
153.1 
 
>  <molecular_refractivity> 
67.52 
 
>  <oscillator_strength_1> 
0.0142 
 
>  <oscillator_strength_2> 
0.0182 
 
>  <oscillator_strength_3> 
0.0056 
 
>  <oscillator_strength_4> 
0.0005 
 
>  <open_babel_can_smiles> 
O=C(c1ccccc1C(=O)O)N1CCCCC1 
 
>  <mulliken_charges> 
32 
1   -0.26647 
2   -0.118286 
3   -0.129681 
4   -0.265388 
5   -0.261146 
6   -0.156479 
7   -0.170289 
8   -0.140861 
9   -0.13644 
10   0.003303 
11   0.070901 
12   0.530098 
13   0.542628 
14   -0.416031 
15   -0.505599 
16   -0.478703 
17   -0.580232 
18   0.132912 
19   0.137241 
20   0.141968 
21   0.140277 
22   0.139586 
23   0.13844 
24   0.136634 
25   0.136998 
26   0.149163 
27   0.164354 
28   0.1876 
29   0.147525 
30   0.154729 
31   0.157232 
32   0.414015 
 
>  <lowdin_charges> 
32 
1   -0.280285 
2   -0.135956 
3   -0.157243 
4   -0.282211 
5   -0.284999 
6   -0.151086 
7   -0.134195 
8   -0.199535 
9   -0.199509 
10   0.000697 
11   -0.049712 
12   0.16342 
13   0.200394 
14   -0.10191 
15   -0.300029 
16   -0.265869 
17   -0.357032 
18   0.140604 
19   0.145908 
20   0.164621 
21   0.163666 
22   0.144458 
23   0.149276 
24   0.149485 
25   0.14365 
26   0.167498 
27   0.175398 
28   0.176695 
29   0.143358 
30   0.144782 
31   0.160865 
32   0.364799 
 
$$$$ 
 
