PCCDB-ID:  19835 
public computational chemistry database (PCCDB) project, http://pccdb.org 
 
 31 30  0  0  0  0  0  0  0  0999 V2000 
    0.9368    0.0673    0.0284 C   0  0  0  0  0  0  0  0  0  0  0  0 
    0.3750    1.0046   -1.0483 C   0  0  0  0  0  0  0  0  0  0  0  0 
    2.4699    0.0292    0.0674 C   0  0  0  0  0  0  0  0  0  0  0  0 
   -1.1584    1.0415   -1.0868 C   0  0  0  0  0  0  0  0  0  0  0  0 
    3.0307   -0.9142    1.1396 C   0  0  0  0  0  0  0  0  0  0  0  0 
   -1.7196    1.9715   -2.1699 C   0  0  0  0  0  0  0  0  0  0  0  0 
    4.5637   -0.9495    1.1802 C   0  0  0  0  0  0  0  0  0  0  0  0 
   -3.2486    2.0082   -2.2005 C   0  0  0  0  0  0  0  0  0  0  0  0 
    5.1177   -1.9005    2.2426 C   0  0  0  0  0  0  0  0  0  0  0  0 
   -3.7656    2.8240   -3.2467 O   0  0  0  0  0  0  0  0  0  0  0  0 
    6.5396   -1.8871    2.3152 O   0  0  0  0  0  0  0  0  0  0  0  0 
    0.5525   -0.9497   -0.1403 H   0  0  0  0  0  0  0  0  0  0  0  0 
    0.5560    0.3755    1.0135 H   0  0  0  0  0  0  0  0  0  0  0  0 
    0.7544    0.6955   -2.0333 H   0  0  0  0  0  0  0  0  0  0  0  0 
    0.7588    2.0219   -0.8810 H   0  0  0  0  0  0  0  0  0  0  0  0 
    2.8552    1.0447    0.2412 H   0  0  0  0  0  0  0  0  0  0  0  0 
    2.8509   -0.2751   -0.9187 H   0  0  0  0  0  0  0  0  0  0  0  0 
   -1.5380    1.3533   -0.1024 H   0  0  0  0  0  0  0  0  0  0  0  0 
   -1.5408    0.0231   -1.2505 H   0  0  0  0  0  0  0  0  0  0  0  0 
    2.6451   -1.9297    0.9649 H   0  0  0  0  0  0  0  0  0  0  0  0 
    2.6486   -0.6101    2.1253 H   0  0  0  0  0  0  0  0  0  0  0  0 
   -1.3609    1.6613   -3.1602 H   0  0  0  0  0  0  0  0  0  0  0  0 
   -1.3403    2.9929   -2.0070 H   0  0  0  0  0  0  0  0  0  0  0  0 
    4.9623    0.0553    1.3732 H   0  0  0  0  0  0  0  0  0  0  0  0 
    4.9484   -1.2528    0.1935 H   0  0  0  0  0  0  0  0  0  0  0  0 
   -3.6389    2.3272   -1.2190 H   0  0  0  0  0  0  0  0  0  0  0  0 
   -3.6457    1.0053   -2.3930 H   0  0  0  0  0  0  0  0  0  0  0  0 
    4.7392   -2.9223    2.0690 H   0  0  0  0  0  0  0  0  0  0  0  0 
    4.7743   -1.5958    3.2374 H   0  0  0  0  0  0  0  0  0  0  0  0 
   -3.4580    3.7296   -3.0862 H   0  0  0  0  0  0  0  0  0  0  0  0 
    6.8760   -2.1827    1.4548 H   0  0  0  0  0  0  0  0  0  0  0  0 
  1  3  1  0  0  0  0 
  1 13  1  0  0  0  0 
  2 15  1  0  0  0  0 
  2  1  1  0  0  0  0 
  3 16  1  0  0  0  0 
  3  5  1  0  0  0  0 
  4  2  1  0  0  0  0 
  4 18  1  0  0  0  0 
  5  7  1  0  0  0  0 
  5 21  1  0  0  0  0 
  6 23  1  0  0  0  0 
  6  4  1  0  0  0  0 
  7 24  1  0  0  0  0 
  7  9  1  0  0  0  0 
  8  6  1  0  0  0  0 
  8 26  1  0  0  0  0 
  9 11  1  0  0  0  0 
  9 29  1  0  0  0  0 
 10 30  1  0  0  0  0 
 10  8  1  0  0  0  0 
 12  1  1  0  0  0  0 
 14  2  1  0  0  0  0 
 17  3  1  0  0  0  0 
 19  4  1  0  0  0  0 
 20  5  1  0  0  0  0 
 22  6  1  0  0  0  0 
 25  7  1  0  0  0  0 
 27  8  1  0  0  0  0 
 28  9  1  0  0  0  0 
 31 11  1  0  0  0  0 
M  END 
>  <HBA> 
2 
 
>  <HBD> 
2 
 
>  <TPSA> 
40.46 
 
>  <cid> 
19835 
 
>  <dipole> 
0.36 
 
>  <excitation_energy_1> 
6.428 
 
>  <excitation_energy_2> 
6.429 
 
>  <excitation_energy_3> 
7.139 
 
>  <excitation_energy_4> 
7.216 
 
>  <homo_energy> 
-7.029 
 
>  <homo_lumo_gap> 
9.094 
 
>  <logP> 
1.702 
 
>  <lumo_energy> 
2.065 
 
>  <melting_point> 
8.68 
 
>  <molecular_refractivity> 
47.7 
 
>  <oscillator_strength_1> 
0.0129 
 
>  <oscillator_strength_2> 
0.007 
 
>  <oscillator_strength_3> 
0.0038 
 
>  <oscillator_strength_4> 
0.0336 
 
>  <open_babel_can_smiles> 
OCCCCCCCCCO 
 
>  <mulliken_charges> 
31 
1   -0.253887 
2   -0.251622 
3   -0.251621 
4   -0.260468 
5   -0.260482 
6   -0.277072 
7   -0.27717 
8   -0.025722 
9   -0.025518 
10   -0.615645 
11   -0.615683 
12   0.128217 
13   0.12828 
14   0.130091 
15   0.128131 
16   0.130127 
17   0.128095 
18   0.129336 
19   0.132038 
20   0.129294 
21   0.132127 
22   0.14502 
23   0.118781 
24   0.145032 
25   0.118721 
26   0.116419 
27   0.144543 
28   0.116366 
29   0.144572 
30   0.384868 
31   0.384831 
 
>  <lowdin_charges> 
31 
1   -0.273299 
2   -0.271717 
3   -0.271819 
4   -0.273605 
5   -0.273352 
6   -0.292073 
7   -0.292226 
8   -0.134656 
9   -0.133218 
10   -0.466998 
11   -0.469151 
12   0.137283 
13   0.137768 
14   0.138741 
15   0.137245 
16   0.138348 
17   0.137658 
18   0.138054 
19   0.139192 
20   0.137567 
21   0.139667 
22   0.146778 
23   0.132545 
24   0.146567 
25   0.133049 
26   0.122524 
27   0.144517 
28   0.12225 
29   0.144932 
30   0.338588 
31   0.338841 
 
$$$$ 
 
