PCCDB-ID:  14267 
public computational chemistry database (PCCDB) project, http://pccdb.org 
 
 20 20  0  0  0  0  0  0  0  0999 V2000 
    1.6386    0.2117    2.0329 C   0  0  0  0  0  0  0  0  0  0  0  0 
    2.7742   -0.0999    1.0526 C   0  0  0  0  0  0  0  0  0  0  0  0 
    2.7543    0.7946   -0.1930 C   0  0  0  0  0  0  0  0  0  0  0  0 
    3.8741    0.4671   -1.1822 C   0  0  0  0  0  0  0  0  0  0  0  0 
    5.0193    1.4477   -3.1528 C   0  0  0  0  0  0  0  0  0  0  0  0 
    4.5199    2.5779   -2.3190 C   0  0  0  0  0  0  0  0  0  0  0  0 
    3.7924    1.3115   -2.3734 N   0  0  0  0  0  0  0  0  0  0  0  0 
    1.6813   -0.4380    2.9146 H   0  0  0  0  0  0  0  0  0  0  0  0 
    0.6586    0.0702    1.5611 H   0  0  0  0  0  0  0  0  0  0  0  0 
    1.6899    1.2506    2.3814 H   0  0  0  0  0  0  0  0  0  0  0  0 
    2.7118   -1.1534    0.7445 H   0  0  0  0  0  0  0  0  0  0  0  0 
    3.7400    0.0098    1.5664 H   0  0  0  0  0  0  0  0  0  0  0  0 
    2.8378    1.8483    0.1094 H   0  0  0  0  0  0  0  0  0  0  0  0 
    1.7912    0.6969   -0.7108 H   0  0  0  0  0  0  0  0  0  0  0  0 
    3.7858   -0.5767   -1.5118 H   0  0  0  0  0  0  0  0  0  0  0  0 
    4.8568    0.5604   -0.6781 H   0  0  0  0  0  0  0  0  0  0  0  0 
    5.9121    0.9288   -2.8004 H   0  0  0  0  0  0  0  0  0  0  0  0 
    4.8962    1.4569   -4.2339 H   0  0  0  0  0  0  0  0  0  0  0  0 
    4.0254    3.4312   -2.7785 H   0  0  0  0  0  0  0  0  0  0  0  0 
    5.0796    2.8103   -1.4112 H   0  0  0  0  0  0  0  0  0  0  0  0 
  1 10  1  0  0  0  0 
  1  8  1  0  0  0  0 
  2 12  1  0  0  0  0 
  2  1  1  0  0  0  0 
  3 13  1  0  0  0  0 
  3  2  1  0  0  0  0 
  4 16  1  0  0  0  0 
  4  3  1  0  0  0  0 
  5 17  1  0  0  0  0 
  5  7  1  0  0  0  0 
  5  6  1  0  0  0  0 
  6 20  1  0  0  0  0 
  7  6  1  0  0  0  0 
  7  4  1  0  0  0  0 
  9  1  1  0  0  0  0 
 11  2  1  0  0  0  0 
 14  3  1  0  0  0  0 
 15  4  1  0  0  0  0 
 18  5  1  0  0  0  0 
 19  6  1  0  0  0  0 
M  END 
>  <HBA> 
1 
 
>  <HBD> 
0 
 
>  <TPSA> 
3.01 
 
>  <cid> 
14267 
 
>  <dipole> 
1.16 
 
>  <excitation_energy_1> 
6.047 
 
>  <excitation_energy_2> 
6.18 
 
>  <excitation_energy_3> 
6.424 
 
>  <excitation_energy_4> 
6.452 
 
>  <homo_energy> 
-6.223 
 
>  <homo_lumo_gap> 
8.735 
 
>  <logP> 
1.04 
 
>  <lumo_energy> 
2.512 
 
>  <melting_point> 
-15.27 
 
>  <molecular_refractivity> 
35.65 
 
>  <oscillator_strength_1> 
0.035 
 
>  <oscillator_strength_2> 
0.0022 
 
>  <oscillator_strength_3> 
0.022 
 
>  <oscillator_strength_4> 
0.0472 
 
>  <open_babel_can_smiles> 
CCCCN1CC1 
 
>  <mulliken_charges> 
20 
1   -0.440263 
2   -0.251871 
3   -0.248047 
4   -0.122222 
5   -0.192147 
6   -0.193737 
7   -0.352745 
8   0.14155 
9   0.143794 
10   0.14171 
11   0.131583 
12   0.129606 
13   0.13112 
14   0.14467 
15   0.139643 
16   0.104511 
17   0.141319 
18   0.154932 
19   0.155373 
20   0.141219 
 
>  <lowdin_charges> 
20 
1   -0.442087 
2   -0.270721 
3   -0.277112 
4   -0.196694 
5   -0.241884 
6   -0.246899 
7   -0.192515 
8   0.149422 
9   0.147142 
10   0.145414 
11   0.137868 
12   0.137825 
13   0.138983 
14   0.147746 
15   0.141824 
16   0.115729 
17   0.146425 
18   0.155436 
19   0.158502 
20   0.145595 
 
$$$$ 
 
