PCCDB-ID:  23850 
public computational chemistry database (PCCDB) project, http://pccdb.org 
 
 18 17  0  0  1  0  0  0  0  0999 V2000 
    1.2606    0.2529   -0.0095 C   0  0  0  0  0  0  0  0  0  0  0  0 
    0.4180    0.3007    1.2858 C   0  0  1  0  0  0  0  0  0  0  0  0 
    0.8460   -0.8216    2.2663 C   0  0  0  0  0  0  0  0  0  0  0  0 
    0.3070    1.6610    1.7945 N   0  0  0  0  0  0  0  0  0  0  0  0 
    0.4135   -1.9443    2.1588 O   0  0  0  0  0  0  0  0  0  0  0  0 
    1.7097   -0.4977    3.2490 O   0  0  0  0  0  0  0  0  0  0  0  0 
    5.3327    1.4633    1.0149 O   0  0  0  0  0  0  0  0  0  0  0  0 
    3.5288    2.9088    0.0270 O   0  0  0  0  0  0  0  0  0  0  0  0 
    3.3045    1.9057    2.3462 O   0  0  0  0  0  0  0  0  0  0  0  0 
    3.0832   -0.0341    0.1337 S   0  0  0  0  0  0  0  0  0  0  0  0 
    3.7385    1.7988    0.9492 S   0  0  0  0  0  0  0  0  0  0  0  0 
    1.0811    1.1563   -0.5975 H   0  0  0  0  0  0  0  0  0  0  0  0 
    0.9698   -0.6193   -0.6038 H   0  0  0  0  0  0  0  0  0  0  0  0 
   -0.5877   -0.0001    0.9726 H   0  0  0  0  0  0  0  0  0  0  0  0 
    1.1808    2.0378    2.1515 H   0  0  0  0  0  0  0  0  0  0  0  0 
   -0.3846    1.7113    2.5382 H   0  0  0  0  0  0  0  0  0  0  0  0 
    2.0748    0.3998    3.1267 H   0  0  0  0  0  0  0  0  0  0  0  0 
    5.7465    1.8303    0.2087 H   0  0  0  0  0  0  0  0  0  0  0  0 
  1 10  1  0  0  0  0 
  1  2  1  0  0  0  0 
  2 14  1  6  0  0  0 
  2  4  1  0  0  0  0 
  2  3  1  0  0  0  0 
  3  6  1  0  0  0  0 
  4 15  1  0  0  0  0 
  4 16  1  0  0  0  0 
  5  3  2  0  0  0  0 
  8 11  1  0  0  0  0 
 10 11  1  0  0  0  0 
 11  7  1  0  0  0  0 
 11  9  1  0  0  0  0 
 12  1  1  0  0  0  0 
 13  1  1  0  0  0  0 
 17  6  1  0  0  0  0 
 18  7  1  0  0  0  0 
M  RAD  2   8   2   9   2 
M  END 
>  <HBA> 
7 
 
>  <HBD> 
3 
 
>  <TPSA> 
151.37 
 
>  <cid> 
23850 
 
>  <dipole> 
3.66 
 
>  <excitation_energy_1> 
4.013 
 
>  <excitation_energy_2> 
4.424 
 
>  <excitation_energy_3> 
5.178 
 
>  <excitation_energy_4> 
5.36 
 
>  <homo_energy> 
-6.702 
 
>  <homo_lumo_gap> 
4.659 
 
>  <logP> 
0.715 
 
>  <lumo_energy> 
-2.044 
 
>  <melting_point> 
196.79 
 
>  <molecular_refractivity> 
39.14 
 
>  <oscillator_strength_1> 
0.0026 
 
>  <oscillator_strength_2> 
0.0008 
 
>  <oscillator_strength_3> 
0.0034 
 
>  <oscillator_strength_4> 
0.0005 
 
>  <open_babel_can_smiles> 
OC(=O)[C@H](CSS([O])(O)[O])N 
 
>  <mulliken_charges> 
18 
1   -0.474756 
2   -0.083684 
3   0.580506 
4   -0.737182 
5   -0.445392 
6   -0.575487 
7   -0.609596 
8   -0.474551 
9   -0.514544 
10   0.070283 
11   1.071114 
12   0.23171 
13   0.225782 
14   0.192355 
15   0.33491 
16   0.319325 
17   0.434871 
18   0.454335 
 
>  <lowdin_charges> 
18 
1   -0.374876 
2   -0.111002 
3   0.169146 
4   -0.557027 
5   -0.247512 
6   -0.346355 
7   -0.55337 
8   -0.548732 
9   -0.568774 
10   0.047493 
11   1.236907 
12   0.191899 
13   0.198711 
14   0.178658 
15   0.26504 
16   0.271101 
17   0.357013 
18   0.391678 
 
$$$$ 
 
