PCCDB-ID:  50969 
public computational chemistry database (PCCDB) project, http://pccdb.org 
 
 31 32  0  0  1  0  0  0  0  0999 V2000 
    1.2158    0.3483   -0.2045 C   0  0  0  0  0  0  0  0  0  0  0  0 
    9.0883    0.3392    1.4459 C   0  0  0  0  0  0  0  0  0  0  0  0 
    7.7593    4.2892    0.8373 C   0  0  0  0  0  0  0  0  0  0  0  0 
    3.4522    1.4523    0.3344 C   0  0  0  0  0  0  0  0  0  0  0  0 
    5.8415    2.2280    0.6759 C   0  0  0  0  0  0  0  0  0  0  0  0 
    4.3532   -1.2910    0.7519 C   0  0  0  0  0  0  0  0  0  0  0  0 
    2.7275    0.1866   -0.1378 C   0  0  1  0  0  0  0  0  0  0  0  0 
    7.6380    0.6474    1.1565 C   0  0  0  0  0  0  0  0  0  0  0  0 
    4.9154    1.1772    0.6180 C   0  0  0  0  0  0  0  0  0  0  0  0 
    5.3308   -0.1370    0.8283 C   0  0  0  0  0  0  0  0  0  0  0  0 
    7.1852    1.9661    0.9466 C   0  0  0  0  0  0  0  0  0  0  0  0 
    6.6898   -0.3778    1.0835 C   0  0  0  0  0  0  0  0  0  0  0  0 
    7.0420   -1.6931    1.2610 O   0  0  0  0  0  0  0  0  0  0  0  0 
    8.1482    2.9392    1.0213 O   0  0  0  0  0  0  0  0  0  0  0  0 
    2.9973   -0.8734    0.7783 O   0  0  0  0  0  0  0  0  0  0  0  0 
    0.9414    1.1565   -0.8918 H   0  0  0  0  0  0  0  0  0  0  0  0 
    0.8159    0.5840    0.7879 H   0  0  0  0  0  0  0  0  0  0  0  0 
    0.7480   -0.5786   -0.5503 H   0  0  0  0  0  0  0  0  0  0  0  0 
    9.6733    1.2580    1.4940 H   0  0  0  0  0  0  0  0  0  0  0  0 
    9.5383   -0.2942    0.6673 H   0  0  0  0  0  0  0  0  0  0  0  0 
    9.2143   -0.1778    2.4087 H   0  0  0  0  0  0  0  0  0  0  0  0 
    7.0249    4.6047    1.5902 H   0  0  0  0  0  0  0  0  0  0  0  0 
    7.3413    4.4576   -0.1641 H   0  0  0  0  0  0  0  0  0  0  0  0 
    8.6698    4.8811    0.9510 H   0  0  0  0  0  0  0  0  0  0  0  0 
    2.9569    1.8151    1.2469 H   0  0  0  0  0  0  0  0  0  0  0  0 
    3.3544    2.2473   -0.4166 H   0  0  0  0  0  0  0  0  0  0  0  0 
    5.4969    3.2414    0.5036 H   0  0  0  0  0  0  0  0  0  0  0  0 
    4.4821   -1.9651    1.6045 H   0  0  0  0  0  0  0  0  0  0  0  0 
    4.5471   -1.8876   -0.1579 H   0  0  0  0  0  0  0  0  0  0  0  0 
    3.1115   -0.0932   -1.1353 H   0  0  0  0  0  0  0  0  0  0  0  0 
    7.9921   -1.7463    1.4437 H   0  0  0  0  0  0  0  0  0  0  0  0 
  1  7  1  0  0  0  0 
  1 17  1  0  0  0  0 
  2 19  1  0  0  0  0 
  2 21  1  0  0  0  0 
  3 24  1  0  0  0  0 
  3 14  1  0  0  0  0 
  3 22  1  0  0  0  0 
  4  9  1  0  0  0  0 
  4 25  1  0  0  0  0 
  5 11  1  0  0  0  0 
  6 15  1  0  0  0  0 
  6 10  1  0  0  0  0 
  6 28  1  0  0  0  0 
  7 30  1  6  0  0  0 
  7  4  1  0  0  0  0 
  7 15  1  0  0  0  0 
  8  2  1  0  0  0  0 
  9  5  2  0  0  0  0 
  9 10  1  0  0  0  0 
 10 12  2  0  0  0  0 
 11 14  1  0  0  0  0 
 11  8  2  0  0  0  0 
 12  8  1  0  0  0  0 
 12 13  1  0  0  0  0 
 13 31  1  0  0  0  0 
 16  1  1  0  0  0  0 
 18  1  1  0  0  0  0 
 20  2  1  0  0  0  0 
 23  3  1  0  0  0  0 
 26  4  1  0  0  0  0 
 27  5  1  0  0  0  0 
 29  6  1  0  0  0  0 
M  END 
>  <HBA> 
3 
 
>  <HBD> 
1 
 
>  <TPSA> 
38.69 
 
>  <cid> 
50969 
 
>  <dipole> 
2.76 
 
>  <excitation_energy_1> 
4.895 
 
>  <excitation_energy_2> 
4.98 
 
>  <excitation_energy_3> 
5.166 
 
>  <excitation_energy_4> 
5.277 
 
>  <homo_energy> 
-5.554 
 
>  <homo_lumo_gap> 
5.837 
 
>  <logP> 
2.17 
 
>  <lumo_energy> 
0.283 
 
>  <melting_point> 
76.21 
 
>  <molecular_refractivity> 
58.44 
 
>  <oscillator_strength_1> 
0.0267 
 
>  <oscillator_strength_2> 
0.0019 
 
>  <oscillator_strength_3> 
0.0016 
 
>  <oscillator_strength_4> 
0.0089 
 
>  <open_babel_can_smiles> 
COc1cc2C[C@H](C)OCc2c(c1C)O 
 
>  <mulliken_charges> 
31 
1   -0.453993 
2   -0.582868 
3   -0.209803 
4   -0.340601 
5   -0.272 
6   -0.070969 
7   0.14081 
8   0.107498 
9   0.108791 
10   0.038681 
11   0.323767 
12   0.211271 
13   -0.655828 
14   -0.523065 
15   -0.485885 
16   0.138993 
17   0.152933 
18   0.155792 
19   0.195465 
20   0.157172 
21   0.155391 
22   0.152426 
23   0.151266 
24   0.166221 
25   0.154644 
26   0.136983 
27   0.117751 
28   0.16369 
29   0.135772 
30   0.113171 
31   0.416523 
 
>  <lowdin_charges> 
31 
1   -0.447649 
2   -0.457576 
3   -0.27665 
4   -0.288049 
5   -0.241701 
6   -0.126745 
7   0.008116 
8   -0.082181 
9   0.002236 
10   -0.076252 
11   0.099458 
12   0.097185 
13   -0.383177 
14   -0.20546 
15   -0.271609 
16   0.152376 
17   0.154994 
18   0.15899 
19   0.180977 
20   0.154868 
21   0.152783 
22   0.146469 
23   0.144068 
24   0.16122 
25   0.156954 
26   0.151093 
27   0.157279 
28   0.160978 
29   0.135761 
30   0.123793 
31   0.357452 
 
$$$$ 
 
