PCCDB-ID:  18406 
public computational chemistry database (PCCDB) project, http://pccdb.org 
 
 20 20  0  0  1  0  0  0  0  0999 V2000 
    0.6537    0.1114    0.0690 C   0  0  0  0  0  0  0  0  0  0  0  0 
    2.1661   -0.1292    0.1034 C   0  0  0  0  0  0  0  0  0  0  0  0 
    2.9249    0.7967   -0.8386 C   0  0  0  0  0  0  0  0  0  0  0  0 
    5.1056    1.3076   -1.5954 C   0  0  0  0  0  0  0  0  0  0  0  0 
    7.4947    1.5173   -0.5916 C   0  0  0  0  0  0  0  0  0  0  0  0 
    6.5367    0.8422   -1.4749 C   0  0  2  0  0  0  0  0  0  0  0  0 
    4.3100    0.5059   -0.7456 O   0  0  0  0  0  0  0  0  0  0  0  0 
    7.5182    1.7371   -2.0099 O   0  0  0  0  0  0  0  0  0  0  0  0 
    0.1334   -0.5668    0.7536 H   0  0  0  0  0  0  0  0  0  0  0  0 
    0.2445   -0.0531   -0.9353 H   0  0  0  0  0  0  0  0  0  0  0  0 
    0.4041    1.1375    0.3654 H   0  0  0  0  0  0  0  0  0  0  0  0 
    2.3925   -1.1667   -0.1721 H   0  0  0  0  0  0  0  0  0  0  0  0 
    2.5513    0.0172    1.1201 H   0  0  0  0  0  0  0  0  0  0  0  0 
    2.7390    1.8525   -0.5730 H   0  0  0  0  0  0  0  0  0  0  0  0 
    2.5773    0.6597   -1.8778 H   0  0  0  0  0  0  0  0  0  0  0  0 
    4.7731    1.2150   -2.6440 H   0  0  0  0  0  0  0  0  0  0  0  0 
    5.0400    2.3748   -1.3249 H   0  0  0  0  0  0  0  0  0  0  0  0 
    8.3456    0.9658   -0.1917 H   0  0  0  0  0  0  0  0  0  0  0  0 
    7.1657    2.3669    0.0076 H   0  0  0  0  0  0  0  0  0  0  0  0 
    6.6987   -0.2117   -1.7083 H   0  0  0  0  0  0  0  0  0  0  0  0 
  1  2  1  0  0  0  0 
  1 11  1  0  0  0  0 
  1  9  1  0  0  0  0 
  2 13  1  0  0  0  0 
  3  7  1  0  0  0  0 
  3 14  1  0  0  0  0 
  3  2  1  0  0  0  0 
  4  6  1  0  0  0  0 
  4 17  1  0  0  0  0 
  4  7  1  0  0  0  0 
  5 18  1  0  0  0  0 
  5 19  1  0  0  0  0 
  6 20  1  6  0  0  0 
  6  5  1  0  0  0  0 
  8  6  1  0  0  0  0 
  8  5  1  0  0  0  0 
 10  1  1  0  0  0  0 
 12  2  1  0  0  0  0 
 15  3  1  0  0  0  0 
 16  4  1  0  0  0  0 
M  END 
>  <HBA> 
2 
 
>  <HBD> 
0 
 
>  <TPSA> 
21.76 
 
>  <cid> 
18406 
 
>  <dipole> 
1.78 
 
>  <excitation_energy_1> 
6.702 
 
>  <excitation_energy_2> 
7.011 
 
>  <excitation_energy_3> 
7.112 
 
>  <excitation_energy_4> 
7.119 
 
>  <homo_energy> 
-7.023 
 
>  <homo_lumo_gap> 
9.241 
 
>  <logP> 
0.812 
 
>  <lumo_energy> 
2.218 
 
>  <melting_point> 
-21.88 
 
>  <molecular_refractivity> 
31.01 
 
>  <oscillator_strength_1> 
0.0169 
 
>  <oscillator_strength_2> 
0.0111 
 
>  <oscillator_strength_3> 
0.0063 
 
>  <oscillator_strength_4> 
0.0214 
 
>  <open_babel_can_smiles> 
CCCOC[C@@H]1CO1 
 
>  <mulliken_charges> 
20 
1   -0.452361 
2   -0.266389 
3   0.00349 
4   -0.027463 
5   -0.103113 
6   0.091834 
7   -0.482234 
8   -0.447904 
9   0.151116 
10   0.14541 
11   0.145181 
12   0.147507 
13   0.147463 
14   0.117056 
15   0.117658 
16   0.129912 
17   0.12706 
18   0.152762 
19   0.151154 
20   0.151859 
 
>  <lowdin_charges> 
20 
1   -0.444753 
2   -0.276162 
3   -0.123703 
4   -0.129549 
5   -0.163363 
6   -0.023313 
7   -0.273902 
8   -0.285397 
9   0.156231 
10   0.147601 
11   0.147196 
12   0.148136 
13   0.148438 
14   0.122971 
15   0.123656 
16   0.132167 
17   0.131701 
18   0.15635 
19   0.153978 
20   0.151716 
 
$$$$ 
 
