PCCDB-ID:  9862 
public computational chemistry database (PCCDB) project, http://pccdb.org 
 
 23 22  0  0  0  0  0  0  0  0999 V2000 
    0.9254   -1.5300   -2.9130 C   0  0  0  0  0  0  0  0  0  0  0  0 
    2.3027   -3.2947   -1.7175 C   0  0  0  0  0  0  0  0  0  0  0  0 
    8.2612   -0.7792   -2.7380 C   0  0  0  0  0  0  0  0  0  0  0  0 
    4.5433   -1.0995   -1.4378 C   0  0  0  0  0  0  0  0  0  0  0  0 
    3.1931   -0.9552   -2.0867 C   0  0  0  0  0  0  0  0  0  0  0  0 
    5.6909   -0.8655   -2.4321 C   0  0  0  0  0  0  0  0  0  0  0  0 
    2.2244   -1.8743   -2.2224 C   0  0  0  0  0  0  0  0  0  0  0  0 
    7.0756   -0.9157   -1.7951 C   0  0  0  0  0  0  0  0  0  0  0  0 
    7.2287   -1.0624   -0.5970 O   0  0  0  0  0  0  0  0  0  0  0  0 
    0.7516   -2.1836   -3.7796 H   0  0  0  0  0  0  0  0  0  0  0  0 
    0.9095   -0.4926   -3.2620 H   0  0  0  0  0  0  0  0  0  0  0  0 
    0.0684   -1.6745   -2.2400 H   0  0  0  0  0  0  0  0  0  0  0  0 
    1.5015   -3.4923   -0.9916 H   0  0  0  0  0  0  0  0  0  0  0  0 
    3.2537   -3.5324   -1.2358 H   0  0  0  0  0  0  0  0  0  0  0  0 
    2.1546   -4.0070   -2.5413 H   0  0  0  0  0  0  0  0  0  0  0  0 
    8.1701    0.1224   -3.3560 H   0  0  0  0  0  0  0  0  0  0  0  0 
    8.2964   -1.6339   -3.4256 H   0  0  0  0  0  0  0  0  0  0  0  0 
    9.1888   -0.7410   -2.1632 H   0  0  0  0  0  0  0  0  0  0  0  0 
    4.6711   -2.0808   -0.9725 H   0  0  0  0  0  0  0  0  0  0  0  0 
    4.6446   -0.3712   -0.6219 H   0  0  0  0  0  0  0  0  0  0  0  0 
    2.9978    0.0360   -2.5027 H   0  0  0  0  0  0  0  0  0  0  0  0 
    5.5825    0.1110   -2.9290 H   0  0  0  0  0  0  0  0  0  0  0  0 
    5.6536   -1.6024   -3.2477 H   0  0  0  0  0  0  0  0  0  0  0  0 
  1 12  1  0  0  0  0 
  1  7  1  0  0  0  0 
  2 14  1  0  0  0  0 
  2 13  1  0  0  0  0 
  3 18  1  0  0  0  0 
  3  8  1  0  0  0  0 
  4 19  1  0  0  0  0 
  4 20  1  0  0  0  0 
  5  4  1  0  0  0  0 
  6  8  1  0  0  0  0 
  6  4  1  0  0  0  0 
  7  5  2  0  0  0  0 
  7  2  1  0  0  0  0 
  8  9  2  0  0  0  0 
 10  1  1  0  0  0  0 
 11  1  1  0  0  0  0 
 15  2  1  0  0  0  0 
 16  3  1  0  0  0  0 
 17  3  1  0  0  0  0 
 21  5  1  0  0  0  0 
 22  6  1  0  0  0  0 
 23  6  1  0  0  0  0 
M  END 
>  <HBA> 
1 
 
>  <HBD> 
0 
 
>  <TPSA> 
17.07 
 
>  <cid> 
9862 
 
>  <dipole> 
2.62 
 
>  <excitation_energy_1> 
4.382 
 
>  <excitation_energy_2> 
5.226 
 
>  <excitation_energy_3> 
5.635 
 
>  <excitation_energy_4> 
6.002 
 
>  <homo_energy> 
-6.163 
 
>  <homo_lumo_gap> 
5.886 
 
>  <logP> 
2.322 
 
>  <lumo_energy> 
-0.278 
 
>  <melting_point> 
6.71 
 
>  <molecular_refractivity> 
40.3 
 
>  <oscillator_strength_1> 
0.0002 
 
>  <oscillator_strength_2> 
0.0009 
 
>  <oscillator_strength_3> 
0.0287 
 
>  <oscillator_strength_4> 
0.0706 
 
>  <open_babel_can_smiles> 
CC(=O)CCC=C(C)C 
 
>  <mulliken_charges> 
23 
1   -0.505889 
2   -0.513381 
3   -0.528028 
4   -0.294883 
5   -0.167129 
6   -0.355643 
7   0.187859 
8   0.454885 
9   -0.436248 
10   0.147901 
11   0.150141 
12   0.150205 
13   0.153815 
14   0.156052 
15   0.149847 
16   0.164737 
17   0.169509 
18   0.179416 
19   0.152954 
20   0.159878 
21   0.107329 
22   0.156919 
23   0.159754 
 
>  <lowdin_charges> 
23 
1   -0.439315 
2   -0.446207 
3   -0.475187 
4   -0.269928 
5   -0.192891 
6   -0.308768 
7   -0.009515 
8   0.163056 
9   -0.235453 
10   0.152176 
11   0.152635 
12   0.15338 
13   0.156864 
14   0.15645 
15   0.154704 
16   0.167318 
17   0.17089 
18   0.172636 
19   0.154069 
20   0.159697 
21   0.142149 
22   0.159877 
23   0.161363 
 
$$$$ 
 
