PCCDB-ID:  15570 
public computational chemistry database (PCCDB) project, http://pccdb.org 
 
 11 11  0  0  0  0  0  0  0  0999 V2000 
    1.0455    0.6659   -0.0256 C   0  0  0  0  0  0  0  0  0  0  0  0 
    1.0453   -0.6650   -0.0140 C   0  0  0  0  0  0  0  0  0  0  0  0 
   -0.3628    1.1742    0.1243 C   0  0  0  0  0  0  0  0  0  0  0  0 
   -0.3631   -1.1703    0.1442 C   0  0  0  0  0  0  0  0  0  0  0  0 
   -1.1770    0.0028    0.2172 O   0  0  0  0  0  0  0  0  0  0  0  0 
    1.9075    1.3169   -0.1256 H   0  0  0  0  0  0  0  0  0  0  0  0 
    1.9072   -1.3179   -0.1023 H   0  0  0  0  0  0  0  0  0  0  0  0 
   -0.6855    1.7840   -0.7352 H   0  0  0  0  0  0  0  0  0  0  0  0 
   -0.4938    1.7918    1.0280 H   0  0  0  0  0  0  0  0  0  0  0  0 
   -0.4946   -1.7728    1.0580 H   0  0  0  0  0  0  0  0  0  0  0  0 
   -0.6857   -1.7942   -0.7052 H   0  0  0  0  0  0  0  0  0  0  0  0 
  1  2  2  0  0  0  0 
  1  3  1  0  0  0  0 
  2  4  1  0  0  0  0 
  3  5  1  0  0  0  0 
  3  9  1  0  0  0  0 
  4  5  1  0  0  0  0 
  4 10  1  0  0  0  0 
  6  1  1  0  0  0  0 
  7  2  1  0  0  0  0 
  8  3  1  0  0  0  0 
 11  4  1  0  0  0  0 
M  END 
>  <HBA> 
1 
 
>  <HBD> 
0 
 
>  <TPSA> 
9.23 
 
>  <cid> 
15570 
 
>  <dipole> 
1.71 
 
>  <excitation_energy_1> 
5.803 
 
>  <excitation_energy_2> 
5.895 
 
>  <excitation_energy_3> 
6.445 
 
>  <excitation_energy_4> 
6.589 
 
>  <homo_energy> 
-6.261 
 
>  <homo_lumo_gap> 
6.762 
 
>  <logP> 
0.573 
 
>  <lumo_energy> 
0.501 
 
>  <melting_point> 
-1.82 
 
>  <molecular_refractivity> 
19.84 
 
>  <oscillator_strength_1> 
0.0686 
 
>  <oscillator_strength_2> 
0.0013 
 
>  <oscillator_strength_3> 
0.0 
 
>  <oscillator_strength_4> 
0.0201 
 
>  <open_babel_can_smiles> 
O1CC=CC1 
 
>  <mulliken_charges> 
11 
1   -0.137179 
2   -0.137452 
3   -0.033642 
4   -0.033559 
5   -0.496423 
6   0.139245 
7   0.139253 
8   0.140104 
9   0.139785 
10   0.139773 
11   0.140097 
 
>  <lowdin_charges> 
11 
1   -0.182434 
2   -0.182443 
3   -0.120516 
4   -0.120494 
5   -0.284961 
6   0.164904 
7   0.1649 
8   0.140608 
9   0.139927 
10   0.13986 
11   0.140649 
 
$$$$ 
 
