PCCDB-ID:  69511 
public computational chemistry database (PCCDB) project, http://pccdb.org 
 
 27 28  0  0  0  0  0  0  0  0999 V2000 
    0.6878   -0.0333    0.1490 C   0  0  0  0  0  0  0  0  0  0  0  0 
    4.5551   -5.9029    1.3238 C   0  0  0  0  0  0  0  0  0  0  0  0 
    4.0101   -4.7796    1.9473 C   0  0  0  0  0  0  0  0  0  0  0  0 
    5.3374   -5.7522    0.1745 C   0  0  0  0  0  0  0  0  0  0  0  0 
    4.1580    1.5646   -0.0532 C   0  0  0  0  0  0  0  0  0  0  0  0 
    2.7721    1.4101    0.0492 C   0  0  0  0  0  0  0  0  0  0  0  0 
    4.2297   -3.5082    1.4157 C   0  0  0  0  0  0  0  0  0  0  0  0 
    5.5714   -4.4835   -0.3466 C   0  0  0  0  0  0  0  0  0  0  0  0 
    4.9789    0.4486   -0.1630 C   0  0  0  0  0  0  0  0  0  0  0  0 
    3.0265   -0.9780   -0.0494 C   0  0  0  0  0  0  0  0  0  0  0  0 
    2.1859    0.1396    0.0441 C   0  0  0  0  0  0  0  0  0  0  0  0 
    5.0069   -3.3486    0.2580 C   0  0  0  0  0  0  0  0  0  0  0  0 
    4.4178   -0.8386   -0.1452 C   0  0  0  0  0  0  0  0  0  0  0  0 
    5.3430   -2.0068   -0.3258 C   0  0  0  0  0  0  0  0  0  0  0  0 
    6.3860   -1.8632   -0.9549 O   0  0  0  0  0  0  0  0  0  0  0  0 
    0.1630    0.9101   -0.0313 H   0  0  0  0  0  0  0  0  0  0  0  0 
    0.3952   -0.3877    1.1460 H   0  0  0  0  0  0  0  0  0  0  0  0 
    0.3178   -0.7680   -0.5752 H   0  0  0  0  0  0  0  0  0  0  0  0 
    4.3773   -6.8931    1.7350 H   0  0  0  0  0  0  0  0  0  0  0  0 
    3.4173   -4.8914    2.8511 H   0  0  0  0  0  0  0  0  0  0  0  0 
    5.7677   -6.6249   -0.3093 H   0  0  0  0  0  0  0  0  0  0  0  0 
    4.5913    2.5612   -0.0552 H   0  0  0  0  0  0  0  0  0  0  0  0 
    2.1369    2.2899    0.1250 H   0  0  0  0  0  0  0  0  0  0  0  0 
    3.8171   -2.6375    1.9150 H   0  0  0  0  0  0  0  0  0  0  0  0 
    6.1934   -4.3443   -1.2249 H   0  0  0  0  0  0  0  0  0  0  0  0 
    6.0542    0.5468   -0.2686 H   0  0  0  0  0  0  0  0  0  0  0  0 
    2.5844   -1.9701   -0.0754 H   0  0  0  0  0  0  0  0  0  0  0  0 
  1 17  1  0  0  0  0 
  2 19  1  0  0  0  0 
  2  3  2  0  0  0  0 
  3 20  1  0  0  0  0 
  4  2  1  0  0  0  0 
  5  6  2  0  0  0  0 
  6 23  1  0  0  0  0 
  7 24  1  0  0  0  0 
  7  3  1  0  0  0  0 
  8  4  2  0  0  0  0 
  8 12  1  0  0  0  0 
  9 13  2  0  0  0  0 
  9  5  1  0  0  0  0 
 10 11  2  0  0  0  0 
 11  6  1  0  0  0  0 
 11  1  1  0  0  0  0 
 12  7  2  0  0  0  0 
 13 10  1  0  0  0  0 
 14 13  1  0  0  0  0 
 14 12  1  0  0  0  0 
 15 14  2  0  0  0  0 
 16  1  1  0  0  0  0 
 18  1  1  0  0  0  0 
 21  4  1  0  0  0  0 
 22  5  1  0  0  0  0 
 25  8  1  0  0  0  0 
 26  9  1  0  0  0  0 
 27 10  1  0  0  0  0 
M  END 
>  <HBA> 
1 
 
>  <HBD> 
0 
 
>  <TPSA> 
17.07 
 
>  <cid> 
69511 
 
>  <dipole> 
3.31 
 
>  <excitation_energy_1> 
3.565 
 
>  <excitation_energy_2> 
4.295 
 
>  <excitation_energy_3> 
4.553 
 
>  <excitation_energy_4> 
4.639 
 
>  <homo_energy> 
-6.52 
 
>  <homo_lumo_gap> 
4.874 
 
>  <logP> 
3.226 
 
>  <lumo_energy> 
-1.646 
 
>  <melting_point> 
68.59 
 
>  <molecular_refractivity> 
61.28 
 
>  <oscillator_strength_1> 
0.0012 
 
>  <oscillator_strength_2> 
0.0295 
 
>  <oscillator_strength_3> 
0.0494 
 
>  <oscillator_strength_4> 
0.2124 
 
>  <open_babel_can_smiles> 
Cc1cccc(c1)C(=O)c1ccccc1 
 
>  <mulliken_charges> 
27 
1   -0.529037 
2   -0.119452 
3   -0.137002 
4   -0.135214 
5   -0.132562 
6   -0.172681 
7   -0.176024 
8   -0.151054 
9   -0.154851 
10   -0.231006 
11   0.170937 
12   0.071998 
13   0.07623 
14   0.318883 
15   -0.465097 
16   0.157725 
17   0.16566 
18   0.164043 
19   0.136381 
20   0.1352 
21   0.137541 
22   0.135794 
23   0.127975 
24   0.148388 
25   0.159714 
26   0.156531 
27   0.14098 
 
>  <lowdin_charges> 
27 
1   -0.443112 
2   -0.141954 
3   -0.157848 
4   -0.156487 
5   -0.153154 
6   -0.155745 
7   -0.152638 
8   -0.12897 
9   -0.134324 
10   -0.161354 
11   5.7e-05 
12   -0.043428 
13   -0.04086 
14   0.154591 
15   -0.245845 
16   0.158554 
17   0.16171 
18   0.162921 
19   0.160411 
20   0.160135 
21   0.162236 
22   0.160396 
23   0.157864 
24   0.1675 
25   0.174784 
26   0.171776 
27   0.162785 
 
$$$$ 
 
