PCCDB-ID:  38362 
public computational chemistry database (PCCDB) project, http://pccdb.org 
 
 30 31  0  0  0  0  0  0  0  0999 V2000 
    1.1990    0.4462   -0.6838 C   0  0  0  0  0  0  0  0  0  0  0  0 
    3.9357   -0.2898    1.9517 C   0  0  0  0  0  0  0  0  0  0  0  0 
    3.0371    1.8229    1.2538 C   0  0  0  0  0  0  0  0  0  0  0  0 
    4.7876    0.3530    2.8352 C   0  0  0  0  0  0  0  0  0  0  0  0 
    3.8789    2.4798    2.1388 C   0  0  0  0  0  0  0  0  0  0  0  0 
    6.3915    1.7373    4.8797 C   0  0  0  0  0  0  0  0  0  0  0  0 
    6.1564    3.7588    3.5894 C   0  0  0  0  0  0  0  0  0  0  0  0 
    7.8658    1.6619    4.4736 C   0  0  0  0  0  0  0  0  0  0  0  0 
    7.6432    3.6431    3.2248 C   0  0  0  0  0  0  0  0  0  0  0  0 
    2.1618   -0.3301    0.2052 C   0  0  0  0  0  0  0  0  0  0  0  0 
    3.0423    0.4232    1.1364 C   0  0  0  0  0  0  0  0  0  0  0  0 
    4.7860    1.7640    2.9569 C   0  0  0  0  0  0  0  0  0  0  0  0 
    5.6007    2.4323    3.8659 N   0  0  0  0  0  0  0  0  0  0  0  0 
    2.2021   -1.5532    0.1458 O   0  0  0  0  0  0  0  0  0  0  0  0 
    8.3779    2.9692    4.2377 O   0  0  0  0  0  0  0  0  0  0  0  0 
    0.4916    1.0321   -0.0843 H   0  0  0  0  0  0  0  0  0  0  0  0 
    0.6448   -0.2642   -1.2996 H   0  0  0  0  0  0  0  0  0  0  0  0 
    1.7354    1.1478   -1.3341 H   0  0  0  0  0  0  0  0  0  0  0  0 
    3.9560   -1.3713    1.8612 H   0  0  0  0  0  0  0  0  0  0  0  0 
    2.3528    2.4188    0.6567 H   0  0  0  0  0  0  0  0  0  0  0  0 
    5.4819   -0.2472    3.4119 H   0  0  0  0  0  0  0  0  0  0  0  0 
    3.8039    3.5583    2.2255 H   0  0  0  0  0  0  0  0  0  0  0  0 
    6.3226    2.3173    5.8112 H   0  0  0  0  0  0  0  0  0  0  0  0 
    5.9741    0.7499    5.0818 H   0  0  0  0  0  0  0  0  0  0  0  0 
    5.6159    4.2411    2.7747 H   0  0  0  0  0  0  0  0  0  0  0  0 
    6.0505    4.3855    4.4858 H   0  0  0  0  0  0  0  0  0  0  0  0 
    7.9798    1.0394    3.5706 H   0  0  0  0  0  0  0  0  0  0  0  0 
    8.4744    1.2332    5.2759 H   0  0  0  0  0  0  0  0  0  0  0  0 
    8.0957    4.6348    3.1239 H   0  0  0  0  0  0  0  0  0  0  0  0 
    7.7424    3.1100    2.2643 H   0  0  0  0  0  0  0  0  0  0  0  0 
  1 16  1  0  0  0  0 
  1 10  1  0  0  0  0 
  2  4  2  0  0  0  0 
  3  5  1  0  0  0  0 
  4 12  1  0  0  0  0 
  4 21  1  0  0  0  0 
  5 22  1  0  0  0  0 
  5 12  2  0  0  0  0 
  6 24  1  0  0  0  0 
  6 23  1  0  0  0  0 
  7 13  1  0  0  0  0 
  7 26  1  0  0  0  0 
  8  6  1  0  0  0  0 
  8 28  1  0  0  0  0 
  9  7  1  0  0  0  0 
  9 15  1  0  0  0  0 
 10 11  1  0  0  0  0 
 11  3  2  0  0  0  0 
 11  2  1  0  0  0  0 
 12 13  1  0  0  0  0 
 13  6  1  0  0  0  0 
 14 10  2  0  0  0  0 
 15  8  1  0  0  0  0 
 17  1  1  0  0  0  0 
 18  1  1  0  0  0  0 
 19  2  1  0  0  0  0 
 20  3  1  0  0  0  0 
 25  7  1  0  0  0  0 
 27  8  1  0  0  0  0 
 29  9  1  0  0  0  0 
 30  9  1  0  0  0  0 
M  END 
>  <HBA> 
3 
 
>  <HBD> 
0 
 
>  <TPSA> 
29.54 
 
>  <cid> 
38362 
 
>  <dipole> 
4.02 
 
>  <excitation_energy_1> 
3.847 
 
>  <excitation_energy_2> 
3.988 
 
>  <excitation_energy_3> 
4.343 
 
>  <excitation_energy_4> 
4.773 
 
>  <homo_energy> 
-5.393 
 
>  <homo_lumo_gap> 
4.354 
 
>  <logP> 
1.791 
 
>  <lumo_energy> 
-1.039 
 
>  <melting_point> 
60.86 
 
>  <molecular_refractivity> 
62.36 
 
>  <oscillator_strength_1> 
0.0025 
 
>  <oscillator_strength_2> 
0.504 
 
>  <oscillator_strength_3> 
0.015 
 
>  <oscillator_strength_4> 
0.0032 
 
>  <open_babel_can_smiles> 
CC(=O)c1ccc(cc1)N1CCOCC1 
 
>  <mulliken_charges> 
30 
1   -0.541304 
2   -0.172965 
3   -0.192152 
4   -0.192195 
5   -0.188905 
6   -0.161834 
7   -0.165649 
8   -0.034692 
9   -0.029173 
10   0.399247 
11   0.078731 
12   0.362545 
13   -0.494621 
14   -0.469423 
15   -0.463429 
16   0.165596 
17   0.177257 
18   0.164646 
19   0.160814 
20   0.130393 
21   0.128737 
22   0.130885 
23   0.158362 
24   0.163165 
25   0.159504 
26   0.155047 
27   0.135088 
28   0.151547 
29   0.150841 
30   0.133937 
 
>  <lowdin_charges> 
30 
1   -0.479827 
2   -0.113753 
3   -0.14126 
4   -0.211608 
5   -0.204645 
6   -0.21371 
7   -0.212446 
8   -0.14395 
9   -0.141747 
10   0.154355 
11   -0.080758 
12   0.071387 
13   -0.115958 
14   -0.260469 
15   -0.272657 
16   0.167869 
17   0.173992 
18   0.167301 
19   0.173613 
20   0.161565 
21   0.158997 
22   0.155754 
23   0.152526 
24   0.163275 
25   0.163995 
26   0.149784 
27   0.134556 
28   0.156135 
29   0.154089 
30   0.133595 
 
$$$$ 
 
