PCCDB-ID:  10448 
public computational chemistry database (PCCDB) project, http://pccdb.org 
 
 16 15  0  0  0  0  0  0  0  0999 V2000 
    1.0104   -0.3513    1.6913 C   0  0  0  0  0  0  0  0  0  0  0  0 
    5.1625   -0.9009    1.4267 C   0  0  0  0  0  0  0  0  0  0  0  0 
    6.1926   -1.3496    2.4690 C   0  0  0  0  0  0  0  0  0  0  0  0 
    3.7360   -0.9083    1.9800 C   0  0  0  0  0  0  0  0  0  0  0  0 
    6.1991   -0.5364    3.6381 O   0  0  0  0  0  0  0  0  0  0  0  0 
    2.5573   -0.2732    0.7236 S   0  0  0  0  0  0  0  0  0  0  0  0 
    0.2088    0.0195    1.0472 H   0  0  0  0  0  0  0  0  0  0  0  0 
    1.0680    0.2820    2.5821 H   0  0  0  0  0  0  0  0  0  0  0  0 
    0.7769   -1.3792    1.9863 H   0  0  0  0  0  0  0  0  0  0  0  0 
    5.2335   -1.5583    0.5500 H   0  0  0  0  0  0  0  0  0  0  0  0 
    5.4182    0.1107    1.0793 H   0  0  0  0  0  0  0  0  0  0  0  0 
    7.1919   -1.3871    2.0068 H   0  0  0  0  0  0  0  0  0  0  0  0 
    5.9599   -2.3605    2.8219 H   0  0  0  0  0  0  0  0  0  0  0  0 
    3.6849   -0.2828    2.8767 H   0  0  0  0  0  0  0  0  0  0  0  0 
    3.4464   -1.9281    2.2625 H   0  0  0  0  0  0  0  0  0  0  0  0 
    6.4837    0.3525    3.3732 H   0  0  0  0  0  0  0  0  0  0  0  0 
  1  9  1  0  0  0  0 
  1  8  1  0  0  0  0 
  2  4  1  0  0  0  0 
  2  3  1  0  0  0  0 
  3 13  1  0  0  0  0 
  3  5  1  0  0  0  0 
  4 15  1  0  0  0  0 
  4 14  1  0  0  0  0 
  6  1  1  0  0  0  0 
  6  4  1  0  0  0  0 
  7  1  1  0  0  0  0 
 10  2  1  0  0  0  0 
 11  2  1  0  0  0  0 
 12  3  1  0  0  0  0 
 16  5  1  0  0  0  0 
M  END 
>  <HBA> 
2 
 
>  <HBD> 
1 
 
>  <TPSA> 
45.53 
 
>  <cid> 
10448 
 
>  <dipole> 
0.36 
 
>  <excitation_energy_1> 
5.048 
 
>  <excitation_energy_2> 
5.355 
 
>  <excitation_energy_3> 
5.773 
 
>  <excitation_energy_4> 
5.97 
 
>  <homo_energy> 
-5.859 
 
>  <homo_lumo_gap> 
6.955 
 
>  <logP> 
0.732 
 
>  <lumo_energy> 
1.097 
 
>  <melting_point> 
2.35 
 
>  <molecular_refractivity> 
30.09 
 
>  <oscillator_strength_1> 
0.0001 
 
>  <oscillator_strength_2> 
0.003 
 
>  <oscillator_strength_3> 
0.008 
 
>  <oscillator_strength_4> 
0.0285 
 
>  <open_babel_can_smiles> 
CSCCCO 
 
>  <mulliken_charges> 
16 
1   -0.582207 
2   -0.292482 
3   -0.037887 
4   -0.39153 
5   -0.608783 
6   0.079526 
7   0.181929 
8   0.175854 
9   0.17535 
10   0.151721 
11   0.143634 
12   0.127812 
13   0.149127 
14   0.177711 
15   0.161535 
16   0.388691 
 
>  <lowdin_charges> 
16 
1   -0.545563 
2   -0.295268 
3   -0.133745 
4   -0.37257 
5   -0.466318 
6   0.08498 
7   0.176271 
8   0.161304 
9   0.159765 
10   0.155954 
11   0.145635 
12   0.130727 
13   0.146422 
14   0.160059 
15   0.150906 
16   0.341443 
 
$$$$ 
 
