PCCDB-ID:  73064 
public computational chemistry database (PCCDB) project, http://pccdb.org 
 
 19 18  0  0  0  0  0  0  0  0999 V2000 
    0.9917    0.1150   -0.1407 C   0  0  0  0  0  0  0  0  0  0  0  0 
    1.0250    2.5898    0.4728 C   0  0  0  0  0  0  0  0  0  0  0  0 
    0.5302    1.1852    0.8639 C   0  0  0  0  0  0  0  0  0  0  0  0 
    0.6713   -1.3431    0.2312 C   0  0  0  0  0  0  0  0  0  0  0  0 
    2.5272    2.7827    0.6752 C   0  0  0  0  0  0  0  0  0  0  0  0 
   -0.9398    1.1114    1.0042 N   0  0  0  0  0  0  0  0  0  0  0  0 
    1.3988   -2.2533   -0.0888 O   0  0  0  0  0  0  0  0  0  0  0  0 
   -0.4782   -1.5490    0.8954 O   0  0  0  0  0  0  0  0  0  0  0  0 
    3.2410    2.0003    1.2487 O   0  0  0  0  0  0  0  0  0  0  0  0 
    3.0390    3.9422    0.1846 O   0  0  0  0  0  0  0  0  0  0  0  0 
    2.0730    0.1706   -0.2767 H   0  0  0  0  0  0  0  0  0  0  0  0 
    0.5288    0.3145   -1.1202 H   0  0  0  0  0  0  0  0  0  0  0  0 
    0.5119    3.3456    1.0866 H   0  0  0  0  0  0  0  0  0  0  0  0 
    0.7620    2.8093   -0.5729 H   0  0  0  0  0  0  0  0  0  0  0  0 
    0.9536    0.9444    1.8445 H   0  0  0  0  0  0  0  0  0  0  0  0 
   -1.4061    1.4720    0.1717 H   0  0  0  0  0  0  0  0  0  0  0  0 
   -1.2662    1.6607    1.7972 H   0  0  0  0  0  0  0  0  0  0  0  0 
   -0.9222   -0.6692    1.0448 H   0  0  0  0  0  0  0  0  0  0  0  0 
    2.3447    4.4637   -0.2515 H   0  0  0  0  0  0  0  0  0  0  0  0 
  1  4  1  0  0  0  0 
  1  3  1  0  0  0  0 
  2  5  1  0  0  0  0 
  2  3  1  0  0  0  0 
  2 13  1  0  0  0  0 
  3  6  1  0  0  0  0 
  3 15  1  0  0  0  0 
  4  8  1  0  0  0  0 
  5  9  2  0  0  0  0 
  6 17  1  0  0  0  0 
  7  4  2  0  0  0  0 
  8 18  1  0  0  0  0 
 10  5  1  0  0  0  0 
 11  1  1  0  0  0  0 
 12  1  1  0  0  0  0 
 14  2  1  0  0  0  0 
 16  6  1  0  0  0  0 
 19 10  1  0  0  0  0 
M  END 
>  <HBA> 
5 
 
>  <HBD> 
3 
 
>  <TPSA> 
100.62 
 
>  <cid> 
73064 
 
>  <dipole> 
9.38 
 
>  <excitation_energy_1> 
5.538 
 
>  <excitation_energy_2> 
5.684 
 
>  <excitation_energy_3> 
5.708 
 
>  <excitation_energy_4> 
5.89 
 
>  <homo_energy> 
-6.77 
 
>  <homo_lumo_gap> 
6.468 
 
>  <logP> 
-0.037 
 
>  <lumo_energy> 
-0.302 
 
>  <melting_point> 
182.67 
 
>  <molecular_refractivity> 
32.4 
 
>  <oscillator_strength_1> 
0.0023 
 
>  <oscillator_strength_2> 
0.0002 
 
>  <oscillator_strength_3> 
0.0077 
 
>  <oscillator_strength_4> 
0.0016 
 
>  <open_babel_can_smiles> 
NC(CC(=O)O)CC(=O)O 
 
>  <mulliken_charges> 
19 
1   -0.384178 
2   -0.415825 
3   0.014603 
4   0.590527 
5   0.618994 
6   -0.766002 
7   -0.457054 
8   -0.59164 
9   -0.427269 
10   -0.561257 
11   0.205958 
12   0.155602 
13   0.171748 
14   0.157984 
15   0.188067 
16   0.317227 
17   0.326285 
18   0.444797 
19   0.411432 
 
>  <lowdin_charges> 
19 
1   -0.325022 
2   -0.339172 
3   -0.064817 
4   0.189277 
5   0.199348 
6   -0.533421 
7   -0.257847 
8   -0.377639 
9   -0.228727 
10   -0.351632 
11   0.18591 
12   0.15899 
13   0.168188 
14   0.156722 
15   0.167497 
16   0.266487 
17   0.272772 
18   0.35212 
19   0.360966 
 
$$$$ 
 
