PCCDB-ID:  59801 
public computational chemistry database (PCCDB) project, http://pccdb.org 
 
 32 32  0  0  1  0  0  0  0  0999 V2000 
    0.9502   -2.0806    3.1829 C   0  0  0  0  0  0  0  0  0  0  0  0 
    3.6731   -3.5068    2.9610 C   0  0  0  0  0  0  0  0  0  0  0  0 
    2.2458   -1.5848    2.5385 C   0  0  0  0  0  0  0  0  0  0  0  0 
    7.1347   -0.8948    6.6801 C   0  0  0  0  0  0  0  0  0  0  0  0 
    6.6909   -0.5147    5.4128 C   0  0  0  0  0  0  0  0  0  0  0  0 
    6.2301   -1.2199    7.6873 C   0  0  0  0  0  0  0  0  0  0  0  0 
    4.4076   -0.7756    6.1625 C   0  0  0  0  0  0  0  0  0  0  0  0 
    4.6324   -1.2819    2.8415 C   0  0  0  0  0  0  0  0  0  0  0  0 
    5.3151   -0.4519    5.1522 C   0  0  0  0  0  0  0  0  0  0  0  0 
    4.8487   -1.1673    7.4364 C   0  0  0  0  0  0  0  0  0  0  0  0 
    4.8136   -0.0643    3.7698 C   0  0  1  0  0  0  0  0  0  0  0  0 
    3.9270   -1.4367    8.4561 N   0  0  0  0  0  0  0  0  0  0  0  0 
    3.4586   -2.0835    3.1950 N   0  0  0  0  0  0  0  0  0  0  0  0 
    5.7254    0.7958    3.0861 O   0  0  0  0  0  0  0  0  0  0  0  0 
    0.0861   -1.6086    2.7015 H   0  0  0  0  0  0  0  0  0  0  0  0 
    0.9323   -1.8303    4.2493 H   0  0  0  0  0  0  0  0  0  0  0  0 
    0.8254   -3.1643    3.0874 H   0  0  0  0  0  0  0  0  0  0  0  0 
    2.8167   -4.0836    3.3229 H   0  0  0  0  0  0  0  0  0  0  0  0 
    4.5538   -3.8397    3.5187 H   0  0  0  0  0  0  0  0  0  0  0  0 
    3.8236   -3.7584    1.8924 H   0  0  0  0  0  0  0  0  0  0  0  0 
    2.2640   -0.4907    2.5979 H   0  0  0  0  0  0  0  0  0  0  0  0 
    2.2464   -1.8359    1.4581 H   0  0  0  0  0  0  0  0  0  0  0  0 
    8.2011   -0.9437    6.8868 H   0  0  0  0  0  0  0  0  0  0  0  0 
    7.3985   -0.2690    4.6274 H   0  0  0  0  0  0  0  0  0  0  0  0 
    6.5868   -1.5086    8.6738 H   0  0  0  0  0  0  0  0  0  0  0  0 
    3.3407   -0.7319    5.9568 H   0  0  0  0  0  0  0  0  0  0  0  0 
    5.5313   -1.9015    2.9168 H   0  0  0  0  0  0  0  0  0  0  0  0 
    4.5866   -0.9099    1.8030 H   0  0  0  0  0  0  0  0  0  0  0  0 
    3.8370    0.4345    3.8792 H   0  0  0  0  0  0  0  0  0  0  0  0 
    4.2740   -2.0488    9.1846 H   0  0  0  0  0  0  0  0  0  0  0  0 
    3.0179   -1.7411    8.1289 H   0  0  0  0  0  0  0  0  0  0  0  0 
    5.9745    1.5006    3.7048 H   0  0  0  0  0  0  0  0  0  0  0  0 
  1 16  1  0  0  0  0 
  2 13  1  0  0  0  0 
  2 18  1  0  0  0  0 
  2 19  1  0  0  0  0 
  3 21  1  0  0  0  0 
  3  1  1  0  0  0  0 
  3 13  1  0  0  0  0 
  4 23  1  0  0  0  0 
  4  6  2  0  0  0  0 
  5  4  1  0  0  0  0 
  6 25  1  0  0  0  0 
  7 10  2  0  0  0  0 
  8 27  1  0  0  0  0 
  8 13  1  0  0  0  0 
  8 11  1  0  0  0  0 
  9  5  2  0  0  0  0 
  9  7  1  0  0  0  0 
 10  6  1  0  0  0  0 
 10 12  1  0  0  0  0 
 11 29  1  1  0  0  0 
 11  9  1  0  0  0  0 
 12 30  1  0  0  0  0 
 14 32  1  0  0  0  0 
 14 11  1  0  0  0  0 
 15  1  1  0  0  0  0 
 17  1  1  0  0  0  0 
 20  2  1  0  0  0  0 
 22  3  1  0  0  0  0 
 24  5  1  0  0  0  0 
 26  7  1  0  0  0  0 
 28  8  1  0  0  0  0 
 31 12  1  0  0  0  0 
M  END 
>  <HBA> 
3 
 
>  <HBD> 
2 
 
>  <TPSA> 
49.49 
 
>  <cid> 
59801 
 
>  <dipole> 
2.24 
 
>  <excitation_energy_1> 
4.623 
 
>  <excitation_energy_2> 
4.731 
 
>  <excitation_energy_3> 
4.945 
 
>  <excitation_energy_4> 
5.18 
 
>  <homo_energy> 
-5.336 
 
>  <homo_lumo_gap> 
5.513 
 
>  <logP> 
1.835 
 
>  <lumo_energy> 
0.177 
 
>  <melting_point> 
75.91 
 
>  <molecular_refractivity> 
59.1 
 
>  <oscillator_strength_1> 
0.0583 
 
>  <oscillator_strength_2> 
0.006 
 
>  <oscillator_strength_3> 
0.0157 
 
>  <oscillator_strength_4> 
0.0027 
 
>  <open_babel_can_smiles> 
CCN(C[C@@H](c1cccc(c1)N)O)C 
 
>  <mulliken_charges> 
32 
1   -0.448404 
2   -0.304977 
3   -0.115955 
4   -0.135208 
5   -0.200931 
6   -0.172235 
7   -0.215862 
8   -0.132283 
9   0.107141 
10   0.305822 
11   0.086387 
12   -0.788126 
13   -0.375524 
14   -0.638497 
15   0.143179 
16   0.148878 
17   0.147259 
18   0.147901 
19   0.156586 
20   0.118329 
21   0.141933 
22   0.112436 
23   0.12356 
24   0.129231 
25   0.113113 
26   0.117736 
27   0.146034 
28   0.135513 
29   0.119639 
30   0.317205 
31   0.318827 
32   0.391295 
 
>  <lowdin_charges> 
32 
1   -0.447446 
2   -0.357349 
3   -0.193463 
4   -0.144777 
5   -0.206325 
6   -0.203059 
7   -0.200836 
8   -0.201806 
9   -0.017079 
10   0.058518 
11   -0.003627 
12   -0.49096 
13   -0.187207 
14   -0.460423 
15   0.153434 
16   0.148881 
17   0.146618 
18   0.149274 
19   0.154361 
20   0.119101 
21   0.142439 
22   0.115247 
23   0.153342 
24   0.159994 
25   0.150479 
26   0.151807 
27   0.152955 
28   0.134704 
29   0.129159 
30   0.274484 
31   0.274267 
32   0.345295 
 
$$$$ 
 
