PCCDB-ID:  35961 
public computational chemistry database (PCCDB) project, http://pccdb.org 
 
 21 22  0  0  0  0  0  0  0  0999 V2000 
   -1.2666    0.1201   -0.1850 C   0  0  0  0  0  0  0  0  0  0  0  0 
   -0.3459   -0.9751   -0.1806 C   0  0  0  0  0  0  0  0  0  0  0  0 
   -0.5116    1.2521   -0.1303 C   0  0  0  0  0  0  0  0  0  0  0  0 
    3.4145   -0.3288   -0.0245 C   0  0  0  0  0  0  0  0  0  0  0  0 
    5.6359   -5.5749   -0.4691 C   0  0  0  0  0  0  0  0  0  0  0  0 
    2.2323   -1.0137   -0.0904 C   0  0  0  0  0  0  0  0  0  0  0  0 
    0.9074   -0.4273   -0.1236 C   0  0  0  0  0  0  0  0  0  0  0  0 
    3.5855   -2.7522   -0.0935 C   0  0  0  0  0  0  0  0  0  0  0  0 
    5.3069   -4.3605   -0.2766 N   0  0  0  0  0  0  0  0  0  0  0  0 
    2.3354   -2.3979   -0.1313 N   0  0  0  0  0  0  0  0  0  0  0  0 
    3.9823   -4.0677   -0.0711 N   0  0  0  0  0  0  0  0  0  0  0  0 
    6.9217   -5.9401   -0.6457 O   0  0  0  0  0  0  0  0  0  0  0  0 
    0.8160    0.9398   -0.0924 O   0  0  0  0  0  0  0  0  0  0  0  0 
    4.7619   -1.4420   -0.0134 S   0  0  0  0  0  0  0  0  0  0  0  0 
   -2.3459    0.0684   -0.2236 H   0  0  0  0  0  0  0  0  0  0  0  0 
   -0.5686   -2.0311   -0.2138 H   0  0  0  0  0  0  0  0  0  0  0  0 
   -0.7434    2.3059   -0.1116 H   0  0  0  0  0  0  0  0  0  0  0  0 
    3.5692    0.7392    0.0078 H   0  0  0  0  0  0  0  0  0  0  0  0 
    4.9575   -6.4288   -0.5120 H   0  0  0  0  0  0  0  0  0  0  0  0 
    3.2627   -4.7414   -0.3228 H   0  0  0  0  0  0  0  0  0  0  0  0 
    7.4635   -5.1318   -0.5820 H   0  0  0  0  0  0  0  0  0  0  0  0 
  1  2  1  0  0  0  0 
  1  3  2  0  0  0  0 
  2  7  2  0  0  0  0 
  3 17  1  0  0  0  0 
  3 13  1  0  0  0  0 
  4 14  1  0  0  0  0 
  4 18  1  0  0  0  0 
  5  9  2  0  0  0  0 
  6  4  2  0  0  0  0 
  7 13  1  0  0  0  0 
  7  6  1  0  0  0  0 
  8 11  1  0  0  0  0 
  8 14  1  0  0  0  0 
  9 11  1  0  0  0  0 
 10  8  2  0  0  0  0 
 10  6  1  0  0  0  0 
 12 21  1  0  0  0  0 
 12  5  1  0  0  0  0 
 15  1  1  0  0  0  0 
 16  2  1  0  0  0  0 
 19  5  1  0  0  0  0 
 20 11  1  0  0  0  0 
M  END 
>  <HBA> 
6 
 
>  <HBD> 
2 
 
>  <TPSA> 
95.4 
 
>  <cid> 
35961 
 
>  <dipole> 
1.6 
 
>  <excitation_energy_1> 
4.083 
 
>  <excitation_energy_2> 
4.391 
 
>  <excitation_energy_3> 
4.444 
 
>  <excitation_energy_4> 
4.699 
 
>  <homo_energy> 
-5.091 
 
>  <homo_lumo_gap> 
4.479 
 
>  <logP> 
2.576 
 
>  <lumo_energy> 
-0.612 
 
>  <melting_point> 
138.68 
 
>  <molecular_refractivity> 
52.51 
 
>  <oscillator_strength_1> 
0.062 
 
>  <oscillator_strength_2> 
0.021 
 
>  <oscillator_strength_3> 
0.1543 
 
>  <oscillator_strength_4> 
0.0502 
 
>  <open_babel_can_smiles> 
O/C=N/Nc1scc(n1)c1ccco1 
 
>  <mulliken_charges> 
21 
1   -0.187537 
2   -0.187382 
3   0.090749 
4   -0.412233 
5   0.285251 
6   0.288958 
7   0.298062 
8   0.349882 
9   -0.262046 
10   -0.529695 
11   -0.489886 
12   -0.558089 
13   -0.457804 
14   0.240501 
15   0.139819 
16   0.149634 
17   0.152327 
18   0.180591 
19   0.154744 
20   0.335128 
21   0.419025 
 
>  <lowdin_charges> 
21 
1   -0.200441 
2   -0.197866 
3   -0.076334 
4   -0.356804 
5   -0.010019 
6   0.019689 
7   0.068925 
8   -0.033053 
9   -0.140426 
10   -0.213616 
11   -0.186721 
12   -0.350977 
13   -0.104845 
14   0.278457 
15   0.16682 
16   0.174998 
17   0.168642 
18   0.190069 
19   0.152058 
20   0.285086 
21   0.36636 
 
$$$$ 
 
