PCCDB-ID:  26074 
public computational chemistry database (PCCDB) project, http://pccdb.org 
 
 20 20  0  0  0  0  0  0  0  0999 V2000 
    4.2495   -1.4438   -5.1503 C   0  0  0  0  0  0  0  0  0  0  0  0 
   -1.8434    0.5938   -2.3026 C   0  0  0  0  0  0  0  0  0  0  0  0 
   -1.0636    1.7521   -2.3504 C   0  0  0  0  0  0  0  0  0  0  0  0 
   -1.2189   -0.6489   -2.1853 C   0  0  0  0  0  0  0  0  0  0  0  0 
    0.3257    1.6713   -2.2824 C   0  0  0  0  0  0  0  0  0  0  0  0 
    0.1717   -0.7391   -2.1242 C   0  0  0  0  0  0  0  0  0  0  0  0 
    0.9582    0.4226   -2.1832 C   0  0  0  0  0  0  0  0  0  0  0  0 
    3.1213   -0.2023   -2.8906 C   0  0  0  0  0  0  0  0  0  0  0  0 
    2.3614    0.3781   -2.0551 N   0  0  0  0  0  0  0  0  0  0  0  0 
    4.4590   -0.2344   -2.6787 O   0  0  0  0  0  0  0  0  0  0  0  0 
    2.6318   -1.0104   -4.4082 S   0  0  0  0  0  0  0  0  0  0  0  0 
    4.0092   -1.9215   -6.1038 H   0  0  0  0  0  0  0  0  0  0  0  0 
    4.7980   -2.1431   -4.5182 H   0  0  0  0  0  0  0  0  0  0  0  0 
    4.8518   -0.5522   -5.3299 H   0  0  0  0  0  0  0  0  0  0  0  0 
   -2.9267    0.6603   -2.3503 H   0  0  0  0  0  0  0  0  0  0  0  0 
   -1.5395    2.7255   -2.4380 H   0  0  0  0  0  0  0  0  0  0  0  0 
   -1.8154   -1.5564   -2.1379 H   0  0  0  0  0  0  0  0  0  0  0  0 
    0.9388    2.5672   -2.3085 H   0  0  0  0  0  0  0  0  0  0  0  0 
    0.6564   -1.7049   -2.0164 H   0  0  0  0  0  0  0  0  0  0  0  0 
    4.5919    0.2443   -1.8376 H   0  0  0  0  0  0  0  0  0  0  0  0 
  1 13  1  0  0  0  0 
  1 11  1  0  0  0  0 
  2  4  1  0  0  0  0 
  3  2  2  0  0  0  0 
  3  5  1  0  0  0  0 
  4 17  1  0  0  0  0 
  4  6  2  0  0  0  0 
  5  7  2  0  0  0  0 
  6 19  1  0  0  0  0 
  7  6  1  0  0  0  0 
  7  9  1  0  0  0  0 
  8 10  1  0  0  0  0 
  8  9  2  0  0  0  0 
 10 20  1  0  0  0  0 
 11  8  1  0  0  0  0 
 12  1  1  0  0  0  0 
 14  1  1  0  0  0  0 
 15  2  1  0  0  0  0 
 16  3  1  0  0  0  0 
 18  5  1  0  0  0  0 
M  END 
>  <HBA> 
3 
 
>  <HBD> 
1 
 
>  <TPSA> 
54.4 
 
>  <cid> 
26074 
 
>  <dipole> 
1.79 
 
>  <excitation_energy_1> 
4.83 
 
>  <excitation_energy_2> 
4.943 
 
>  <excitation_energy_3> 
5.131 
 
>  <excitation_energy_4> 
5.387 
 
>  <homo_energy> 
-5.834 
 
>  <homo_lumo_gap> 
5.712 
 
>  <logP> 
2.655 
 
>  <lumo_energy> 
-0.122 
 
>  <melting_point> 
77.9 
 
>  <molecular_refractivity> 
48.73 
 
>  <oscillator_strength_1> 
0.0859 
 
>  <oscillator_strength_2> 
0.1208 
 
>  <oscillator_strength_3> 
0.0056 
 
>  <oscillator_strength_4> 
0.0164 
 
>  <open_babel_can_smiles> 
CS/C(=N\c1ccccc1)/O 
 
>  <mulliken_charges> 
20 
1   -0.58696 
2   -0.12778 
3   -0.138347 
4   -0.140086 
5   -0.14491 
6   -0.142743 
7   0.234485 
8   0.346516 
9   -0.525391 
10   -0.57296 
11   0.149417 
12   0.18484 
13   0.200149 
14   0.199042 
15   0.125171 
16   0.128182 
17   0.128811 
18   0.129048 
19   0.137226 
20   0.416292 
 
>  <lowdin_charges> 
20 
1   -0.541294 
2   -0.166171 
3   -0.151686 
4   -0.152809 
5   -0.171476 
6   -0.176591 
7   0.050014 
8   0.037323 
9   -0.22078 
10   -0.361218 
11   0.163165 
12   0.178037 
13   0.177651 
14   0.176626 
15   0.154278 
16   0.156976 
17   0.15784 
18   0.161739 
19   0.163097 
20   0.365277 
 
$$$$ 
 
