PCCDB-ID:  67433 
public computational chemistry database (PCCDB) project, http://pccdb.org 
 
 21 22  0  0  0  0  0  0  0  0999 V2000 
    2.2152    0.5852   -0.5392 C   0  0  0  0  0  0  0  0  0  0  0  0 
   -2.3801   -0.0680    0.6530 C   0  0  0  0  0  0  0  0  0  0  0  0 
    1.1266    1.2748    0.2973 C   0  0  0  0  0  0  0  0  0  0  0  0 
   -1.0687    0.2659    1.4053 C   0  0  0  0  0  0  0  0  0  0  0  0 
    2.0120   -0.9073   -0.1922 C   0  0  0  0  0  0  0  0  0  0  0  0 
   -1.8810   -0.4655   -0.7472 C   0  0  0  0  0  0  0  0  0  0  0  0 
    0.0263    0.2150    0.3184 C   0  0  0  0  0  0  0  0  0  0  0  0 
    0.7305   -1.0160    0.4489 O   0  0  0  0  0  0  0  0  0  0  0  0 
   -0.6710    0.2737   -0.9223 O   0  0  0  0  0  0  0  0  0  0  0  0 
    3.2253    0.9342   -0.3050 H   0  0  0  0  0  0  0  0  0  0  0  0 
    2.0328    0.7608   -1.6033 H   0  0  0  0  0  0  0  0  0  0  0  0 
   -3.0258    0.8138    0.5908 H   0  0  0  0  0  0  0  0  0  0  0  0 
   -2.9530   -0.8683    1.1310 H   0  0  0  0  0  0  0  0  0  0  0  0 
    0.7756    2.2189   -0.1264 H   0  0  0  0  0  0  0  0  0  0  0  0 
    1.4706    1.4533    1.3226 H   0  0  0  0  0  0  0  0  0  0  0  0 
   -0.8333   -0.4538    2.1926 H   0  0  0  0  0  0  0  0  0  0  0  0 
   -1.1088    1.2616    1.8573 H   0  0  0  0  0  0  0  0  0  0  0  0 
    2.7634   -1.2777    0.5157 H   0  0  0  0  0  0  0  0  0  0  0  0 
    2.0389   -1.5449   -1.0840 H   0  0  0  0  0  0  0  0  0  0  0  0 
   -2.5587   -0.1898   -1.5596 H   0  0  0  0  0  0  0  0  0  0  0  0 
   -1.6768   -1.5437   -0.8042 H   0  0  0  0  0  0  0  0  0  0  0  0 
  1 10  1  0  0  0  0 
  1  5  1  0  0  0  0 
  1  3  1  0  0  0  0 
  2 13  1  0  0  0  0 
  2  4  1  0  0  0  0 
  3  7  1  0  0  0  0 
  3 15  1  0  0  0  0 
  4 17  1  0  0  0  0 
  4 16  1  0  0  0  0 
  5  8  1  0  0  0  0 
  5 18  1  0  0  0  0 
  6  2  1  0  0  0  0 
  7  8  1  0  0  0  0 
  7  4  1  0  0  0  0 
  9  6  1  0  0  0  0 
  9  7  1  0  0  0  0 
 11  1  1  0  0  0  0 
 12  2  1  0  0  0  0 
 14  3  1  0  0  0  0 
 19  5  1  0  0  0  0 
 20  6  1  0  0  0  0 
 21  6  1  0  0  0  0 
M  END 
>  <HBA> 
2 
 
>  <HBD> 
0 
 
>  <TPSA> 
18.46 
 
>  <cid> 
67433 
 
>  <dipole> 
0.85 
 
>  <excitation_energy_1> 
6.368 
 
>  <excitation_energy_2> 
6.679 
 
>  <excitation_energy_3> 
6.818 
 
>  <excitation_energy_4> 
6.954 
 
>  <homo_energy> 
-6.642 
 
>  <homo_lumo_gap> 
8.95 
 
>  <logP> 
1.304 
 
>  <lumo_energy> 
2.308 
 
>  <melting_point> 
11.05 
 
>  <molecular_refractivity> 
33.74 
 
>  <oscillator_strength_1> 
0.0016 
 
>  <oscillator_strength_2> 
0.0047 
 
>  <oscillator_strength_3> 
0.003 
 
>  <oscillator_strength_4> 
0.004 
 
>  <open_babel_can_smiles> 
C1COC2(C1)CCCO2 
 
>  <mulliken_charges> 
21 
1   -0.320834 
2   -0.298767 
3   -0.305708 
4   -0.321533 
5   -0.007264 
6   -0.030439 
7   0.549872 
8   -0.51976 
9   -0.50341 
10   0.142874 
11   0.162815 
12   0.145998 
13   0.143177 
14   0.153147 
15   0.144179 
16   0.16322 
17   0.147464 
18   0.134111 
19   0.139273 
20   0.14119 
21   0.140396 
 
>  <lowdin_charges> 
21 
1   -0.293264 
2   -0.295889 
3   -0.288864 
4   -0.296019 
5   -0.132219 
6   -0.134715 
7   0.199665 
8   -0.279988 
9   -0.275195 
10   0.15029 
11   0.154862 
12   0.148994 
13   0.152866 
14   0.159345 
15   0.149709 
16   0.163597 
17   0.152914 
18   0.14017 
19   0.141063 
20   0.148662 
21   0.134016 
 
$$$$ 
 
