PCCDB-ID:  48219 
public computational chemistry database (PCCDB) project, http://pccdb.org 
 
 33 33  0  0  0  0  0  0  0  0999 V2000 
   -0.3331    1.1764    0.2874 C   0  0  0  0  0  0  0  0  0  0  0  0 
    5.8356    7.5334   -3.8817 C   0  0  0  0  0  0  0  0  0  0  0  0 
    5.1623    8.6502   -1.7663 C   0  0  0  0  0  0  0  0  0  0  0  0 
    1.2164    2.4397   -1.3765 C   0  0  0  0  0  0  0  0  0  0  0  0 
    2.6627    2.6109   -0.8375 C   0  0  0  0  0  0  0  0  0  0  0  0 
    3.9195    3.9893   -2.5605 C   0  0  0  0  0  0  0  0  0  0  0  0 
    3.2925    5.0559   -0.5217 C   0  0  0  0  0  0  0  0  0  0  0  0 
    4.4868    5.1740   -3.0194 C   0  0  0  0  0  0  0  0  0  0  0  0 
    3.8546    6.2522   -0.9604 C   0  0  0  0  0  0  0  0  0  0  0  0 
    0.5793    1.1527   -0.9093 C   0  0  0  0  0  0  0  0  0  0  0  0 
    3.3064    3.8970   -1.3050 C   0  0  0  0  0  0  0  0  0  0  0  0 
    4.4583    6.3480   -2.2334 C   0  0  0  0  0  0  0  0  0  0  0  0 
    0.7755    0.0028   -1.4439 N   0  0  0  0  0  0  0  0  0  0  0  0 
    4.9940    7.5490   -2.6980 N   0  0  0  0  0  0  0  0  0  0  0  0 
    1.6584    0.0849   -2.5506 O   0  0  0  0  0  0  0  0  0  0  0  0 
    0.1833    1.5975    1.1604 H   0  0  0  0  0  0  0  0  0  0  0  0 
   -0.6757    0.1682    0.5325 H   0  0  0  0  0  0  0  0  0  0  0  0 
   -1.2068    1.8131    0.0960 H   0  0  0  0  0  0  0  0  0  0  0  0 
    6.1521    8.5541   -4.1074 H   0  0  0  0  0  0  0  0  0  0  0  0 
    5.2809    7.1634   -4.7518 H   0  0  0  0  0  0  0  0  0  0  0  0 
    6.7377    6.9101   -3.7637 H   0  0  0  0  0  0  0  0  0  0  0  0 
    5.5757    9.5090   -2.2997 H   0  0  0  0  0  0  0  0  0  0  0  0 
    5.8351    8.4089   -0.9263 H   0  0  0  0  0  0  0  0  0  0  0  0 
    4.1972    8.9585   -1.3475 H   0  0  0  0  0  0  0  0  0  0  0  0 
    1.2469    2.4527   -2.4705 H   0  0  0  0  0  0  0  0  0  0  0  0 
    0.6074    3.2909   -1.0501 H   0  0  0  0  0  0  0  0  0  0  0  0 
    3.2516    1.7486   -1.1679 H   0  0  0  0  0  0  0  0  0  0  0  0 
    2.6427    2.5842    0.2596 H   0  0  0  0  0  0  0  0  0  0  0  0 
    3.9639    3.1078   -3.1975 H   0  0  0  0  0  0  0  0  0  0  0  0 
    2.8414    5.0260    0.4688 H   0  0  0  0  0  0  0  0  0  0  0  0 
    4.9588    5.1773   -3.9949 H   0  0  0  0  0  0  0  0  0  0  0  0 
    3.8261    7.1104   -0.2995 H   0  0  0  0  0  0  0  0  0  0  0  0 
    1.6824   -0.8369   -2.8493 H   0  0  0  0  0  0  0  0  0  0  0  0 
  1 17  1  0  0  0  0 
  1 16  1  0  0  0  0 
  2 21  1  0  0  0  0 
  2 14  1  0  0  0  0 
  3 24  1  0  0  0  0 
  3 23  1  0  0  0  0 
  4 26  1  0  0  0  0 
  4 10  1  0  0  0  0 
  4  5  1  0  0  0  0 
  5 28  1  0  0  0  0 
  6 11  1  0  0  0  0 
  7 30  1  0  0  0  0 
  8  6  2  0  0  0  0 
  8 12  1  0  0  0  0 
  9  7  1  0  0  0  0 
  9 32  1  0  0  0  0 
 10  1  1  0  0  0  0 
 11  5  1  0  0  0  0 
 11  7  2  0  0  0  0 
 12  9  2  0  0  0  0 
 13 10  2  0  0  0  0 
 14 12  1  0  0  0  0 
 14  3  1  0  0  0  0 
 15 13  1  0  0  0  0 
 18  1  1  0  0  0  0 
 19  2  1  0  0  0  0 
 20  2  1  0  0  0  0 
 22  3  1  0  0  0  0 
 25  4  1  0  0  0  0 
 27  5  1  0  0  0  0 
 29  6  1  0  0  0  0 
 31  8  1  0  0  0  0 
 33 15  1  0  0  0  0 
M  END 
>  <HBA> 
3 
 
>  <HBD> 
1 
 
>  <TPSA> 
35.83 
 
>  <cid> 
48219 
 
>  <dipole> 
2.18 
 
>  <excitation_energy_1> 
4.411 
 
>  <excitation_energy_2> 
4.435 
 
>  <excitation_energy_3> 
4.686 
 
>  <excitation_energy_4> 
4.829 
 
>  <homo_energy> 
-4.939 
 
>  <homo_lumo_gap> 
5.255 
 
>  <logP> 
2.535 
 
>  <lumo_energy> 
0.316 
 
>  <melting_point> 
87.28 
 
>  <molecular_refractivity> 
64.45 
 
>  <oscillator_strength_1> 
0.0384 
 
>  <oscillator_strength_2> 
0.0284 
 
>  <oscillator_strength_3> 
0.1258 
 
>  <oscillator_strength_4> 
0.0784 
 
>  <open_babel_can_smiles> 
O/N=C(\CCc1ccc(cc1)N(C)C)/C 
 
>  <mulliken_charges> 
33 
1   -0.506818 
2   -0.309121 
3   -0.308954 
4   -0.311337 
5   -0.353945 
6   -0.193083 
7   -0.195157 
8   -0.192628 
9   -0.193268 
10   0.328098 
11   0.172725 
12   0.361437 
13   -0.229503 
14   -0.471128 
15   -0.520528 
16   0.158746 
17   0.173428 
18   0.1597 
19   0.151751 
20   0.162724 
21   0.148031 
22   0.151906 
23   0.147558 
24   0.162163 
25   0.173505 
26   0.139842 
27   0.165978 
28   0.135603 
29   0.125446 
30   0.11357 
31   0.120287 
32   0.119344 
33   0.413628 
 
>  <lowdin_charges> 
33 
1   -0.442192 
2   -0.349698 
3   -0.351775 
4   -0.287609 
5   -0.264587 
6   -0.156899 
7   -0.158294 
8   -0.20574 
9   -0.21029 
10   0.02502 
11   -0.030957 
12   0.055215 
13   -0.080857 
14   -0.122919 
15   -0.393599 
16   0.159708 
17   0.167883 
18   0.160615 
19   0.154798 
20   0.153591 
21   0.139285 
22   0.156403 
23   0.139472 
24   0.152829 
25   0.165108 
26   0.151597 
27   0.160174 
28   0.142007 
29   0.156137 
30   0.149368 
31   0.156886 
32   0.157782 
33   0.351537 
 
$$$$ 
 
