PCCDB-ID:  67073 
public computational chemistry database (PCCDB) project, http://pccdb.org 
 
 28 28  0  0  0  0  0  0  0  0999 V2000 
    3.6250   -0.2027   -1.7350 C   0  0  0  0  0  0  0  0  0  0  0  0 
    4.6406    5.8695   -0.4581 C   0  0  0  0  0  0  0  0  0  0  0  0 
    1.2446    2.1522   -2.1532 C   0  0  0  0  0  0  0  0  0  0  0  0 
    1.1558    3.4397   -2.6502 C   0  0  0  0  0  0  0  0  0  0  0  0 
    2.1149    3.0454   -0.0754 C   0  0  0  0  0  0  0  0  0  0  0  0 
    2.5450   -0.2604   -0.6767 C   0  0  0  0  0  0  0  0  0  0  0  0 
    3.4034    6.0437    0.3877 C   0  0  0  0  0  0  0  0  0  0  0  0 
    1.7462    1.9405   -0.8506 C   0  0  0  0  0  0  0  0  0  0  0  0 
    2.0622    4.3610   -0.5655 C   0  0  0  0  0  0  0  0  0  0  0  0 
    1.5780    4.5362   -1.8882 C   0  0  0  0  0  0  0  0  0  0  0  0 
    1.7791    0.6692   -0.2794 N   0  0  0  0  0  0  0  0  0  0  0  0 
    2.3171    5.3945    0.3245 N   0  0  0  0  0  0  0  0  0  0  0  0 
    1.4831    5.8450   -2.5209 N   0  0  0  0  0  0  0  0  0  0  0  0 
    2.4037   -1.4639   -0.0584 O   0  0  0  0  0  0  0  0  0  0  0  0 
    3.4662    7.0180    1.3300 O   0  0  0  0  0  0  0  0  0  0  0  0 
    0.6849    5.9759   -3.4531 O   0  0  0  0  0  0  0  0  0  0  0  0 
    2.2172    6.7546   -2.1190 O   0  0  0  0  0  0  0  0  0  0  0  0 
    3.7046    0.7956   -2.1667 H   0  0  0  0  0  0  0  0  0  0  0  0 
    3.4117   -0.9144   -2.5421 H   0  0  0  0  0  0  0  0  0  0  0  0 
    4.5938   -0.4745   -1.2970 H   0  0  0  0  0  0  0  0  0  0  0  0 
    4.5711    4.9700   -1.0714 H   0  0  0  0  0  0  0  0  0  0  0  0 
    5.5355    5.7993    0.1723 H   0  0  0  0  0  0  0  0  0  0  0  0 
    4.7468    6.7304   -1.1274 H   0  0  0  0  0  0  0  0  0  0  0  0 
    0.9086    1.3069   -2.7450 H   0  0  0  0  0  0  0  0  0  0  0  0 
    0.7675    3.6293   -3.6436 H   0  0  0  0  0  0  0  0  0  0  0  0 
    2.4322    2.8918    0.9502 H   0  0  0  0  0  0  0  0  0  0  0  0 
    3.0540   -2.0886   -0.4148 H   0  0  0  0  0  0  0  0  0  0  0  0 
    4.3185    7.4751    1.2631 H   0  0  0  0  0  0  0  0  0  0  0  0 
  1 20  1  0  0  0  0 
  1  6  1  0  0  0  0 
  2 22  1  0  0  0  0 
  2  7  1  0  0  0  0 
  3  8  1  0  0  0  0 
  4  3  2  0  0  0  0 
  4 10  1  0  0  0  0 
  5 26  1  0  0  0  0 
  6 11  2  0  0  0  0 
  6 14  1  0  0  0  0 
  7 15  1  0  0  0  0 
  8 11  1  0  0  0  0 
  8  5  2  0  0  0  0 
  9  5  1  0  0  0  0 
  9 12  1  0  0  0  0 
 10  9  2  0  0  0  0 
 12  7  2  0  0  0  0 
 13 17  2  0  0  0  0 
 13 10  1  0  0  0  0 
 16 13  2  0  0  0  0 
 18  1  1  0  0  0  0 
 19  1  1  0  0  0  0 
 21  2  1  0  0  0  0 
 23  2  1  0  0  0  0 
 24  3  1  0  0  0  0 
 25  4  1  0  0  0  0 
 27 14  1  0  0  0  0 
 28 15  1  0  0  0  0 
M  END 
>  <HBA> 
4 
 
>  <HBD> 
2 
 
>  <TPSA> 
104.02 
 
>  <cid> 
67073 
 
>  <dipole> 
8.63 
 
>  <excitation_energy_1> 
3.495 
 
>  <excitation_energy_2> 
3.681 
 
>  <excitation_energy_3> 
4.023 
 
>  <excitation_energy_4> 
4.225 
 
>  <homo_energy> 
-6.188 
 
>  <homo_lumo_gap> 
4.283 
 
>  <logP> 
2.181 
 
>  <lumo_energy> 
-1.905 
 
>  <melting_point> 
154.68 
 
>  <molecular_refractivity> 
63.89 
 
>  <oscillator_strength_1> 
0.0741 
 
>  <oscillator_strength_2> 
0.0456 
 
>  <oscillator_strength_3> 
0.1782 
 
>  <oscillator_strength_4> 
0.0407 
 
>  <open_babel_can_smiles> 
C/C(=N\c1ccc(c(c1)/N=C(/O)\C)N(=O)=O)/O 
 
>  <mulliken_charges> 
28 
1   -0.554397 
2   -0.543829 
3   -0.170674 
4   -0.163146 
5   -0.202812 
6   0.485218 
7   0.516746 
8   0.260297 
9   0.227383 
10   0.260266 
11   -0.459037 
12   -0.452683 
13   0.351487 
14   -0.56249 
15   -0.563466 
16   -0.401427 
17   -0.419442 
18   0.1966 
19   0.181404 
20   0.177676 
21   0.183122 
22   0.16095 
23   0.204781 
24   0.13605 
25   0.178282 
26   0.146697 
27   0.412527 
28   0.413918 
 
>  <lowdin_charges> 
28 
1   -0.482721 
2   -0.478824 
3   -0.201181 
4   -0.130221 
5   -0.194909 
6   0.154686 
7   0.169612 
8   0.070116 
9   0.070733 
10   -0.039484 
11   -0.161663 
12   -0.159851 
13   0.310701 
14   -0.353657 
15   -0.345212 
16   -0.261179 
17   -0.267171 
18   0.18303 
19   0.174065 
20   0.17162 
21   0.177943 
22   0.163023 
23   0.18662 
24   0.165119 
25   0.184259 
26   0.172709 
27   0.3611 
28   0.360735 
 
$$$$ 
 
