PCCDB-ID:  16032 
public computational chemistry database (PCCDB) project, http://pccdb.org 
 
 23 22  0  0  0  0  0  0  0  0999 V2000 
    2.8640   -0.5446    1.3995 C   0  0  0  0  0  0  0  0  0  0  0  0 
    1.3651    1.2099   -2.3023 C   0  0  0  0  0  0  0  0  0  0  0  0 
    2.7371    0.6731    0.4814 C   0  0  0  0  0  0  0  0  0  0  0  0 
    2.8062    1.4452   -1.8402 C   0  0  0  0  0  0  0  0  0  0  0  0 
    4.6970    0.1691   -0.9420 C   0  0  0  0  0  0  0  0  0  0  0  0 
    5.6404    1.3255   -0.5514 C   0  0  0  0  0  0  0  0  0  0  0  0 
    3.2645    0.4474   -0.8675 N   0  0  0  0  0  0  0  0  0  0  0  0 
    7.4224    0.9120   -0.7735 S   0  0  0  0  0  0  0  0  0  0  0  0 
    2.3379   -0.3580    2.3424 H   0  0  0  0  0  0  0  0  0  0  0  0 
    3.9052   -0.7763    1.6491 H   0  0  0  0  0  0  0  0  0  0  0  0 
    2.4235   -1.4276    0.9245 H   0  0  0  0  0  0  0  0  0  0  0  0 
    1.0880    1.9456   -3.0664 H   0  0  0  0  0  0  0  0  0  0  0  0 
    0.6456    1.3041   -1.4818 H   0  0  0  0  0  0  0  0  0  0  0  0 
    1.2620    0.2068   -2.7284 H   0  0  0  0  0  0  0  0  0  0  0  0 
    3.1923    1.5563    0.9706 H   0  0  0  0  0  0  0  0  0  0  0  0 
    1.6731    0.9082    0.3749 H   0  0  0  0  0  0  0  0  0  0  0  0 
    2.9062    2.4786   -1.4567 H   0  0  0  0  0  0  0  0  0  0  0  0 
    3.4639    1.3781   -2.7150 H   0  0  0  0  0  0  0  0  0  0  0  0 
    4.9170   -0.6963   -0.3067 H   0  0  0  0  0  0  0  0  0  0  0  0 
    4.9310   -0.1363   -1.9683 H   0  0  0  0  0  0  0  0  0  0  0  0 
    5.4759    1.6569    0.4778 H   0  0  0  0  0  0  0  0  0  0  0  0 
    5.4806    2.1919   -1.2013 H   0  0  0  0  0  0  0  0  0  0  0  0 
    7.4533   -0.1238    0.0942 H   0  0  0  0  0  0  0  0  0  0  0  0 
  1 10  1  0  0  0  0 
  1  9  1  0  0  0  0 
  2  4  1  0  0  0  0 
  2 13  1  0  0  0  0 
  3 15  1  0  0  0  0 
  3  1  1  0  0  0  0 
  4 17  1  0  0  0  0 
  4  7  1  0  0  0  0 
  5  7  1  0  0  0  0 
  5  6  1  0  0  0  0 
  5 19  1  0  0  0  0 
  6 21  1  0  0  0  0 
  7  3  1  0  0  0  0 
  8  6  1  0  0  0  0 
  8 23  1  0  0  0  0 
 11  1  1  0  0  0  0 
 12  2  1  0  0  0  0 
 14  2  1  0  0  0  0 
 16  3  1  0  0  0  0 
 18  4  1  0  0  0  0 
 20  5  1  0  0  0  0 
 22  6  1  0  0  0  0 
M  END 
>  <HBA> 
2 
 
>  <HBD> 
1 
 
>  <TPSA> 
42.04 
 
>  <cid> 
16032 
 
>  <dipole> 
1.82 
 
>  <excitation_energy_1> 
4.755 
 
>  <excitation_energy_2> 
5.244 
 
>  <excitation_energy_3> 
5.392 
 
>  <excitation_energy_4> 
5.522 
 
>  <homo_energy> 
-5.584 
 
>  <homo_lumo_gap> 
6.283 
 
>  <logP> 
1.258 
 
>  <lumo_energy> 
0.699 
 
>  <melting_point> 
-3.67 
 
>  <molecular_refractivity> 
41.78 
 
>  <oscillator_strength_1> 
0.0211 
 
>  <oscillator_strength_2> 
0.0187 
 
>  <oscillator_strength_3> 
0.006 
 
>  <oscillator_strength_4> 
0.0031 
 
>  <open_babel_can_smiles> 
SCCN(CC)CC 
 
>  <mulliken_charges> 
23 
1   -0.452705 
2   -0.439981 
3   -0.11688 
4   -0.122301 
5   -0.134151 
6   -0.426983 
7   -0.372046 
8   -0.085071 
9   0.144667 
10   0.144192 
11   0.158374 
12   0.140338 
13   0.146489 
14   0.155389 
15   0.112735 
16   0.142512 
17   0.115971 
18   0.138798 
19   0.141812 
20   0.158025 
21   0.179573 
22   0.180789 
23   0.090455 
 
>  <lowdin_charges> 
23 
1   -0.449846 
2   -0.450384 
3   -0.197933 
4   -0.196243 
5   -0.212271 
6   -0.392041 
7   -0.188471 
8   -0.086271 
9   0.153927 
10   0.145229 
11   0.15678 
12   0.151642 
13   0.148441 
14   0.154142 
15   0.116735 
16   0.145509 
17   0.118644 
18   0.146061 
19   0.146256 
20   0.152346 
21   0.158471 
22   0.168162 
23   0.111116 
 
$$$$ 
 
