PCCDB-ID:  14230 
public computational chemistry database (PCCDB) project, http://pccdb.org 
 
 21 20  0  0  0  0  0  0  0  0999 V2000 
    2.0713    0.4509    0.7358 C   0  0  0  0  0  0  0  0  0  0  0  0 
    3.0546   -1.9054   -4.3902 C   0  0  0  0  0  0  0  0  0  0  0  0 
    3.2344   -0.0158   -0.1453 C   0  0  0  0  0  0  0  0  0  0  0  0 
    2.8025   -1.0101   -1.2308 C   0  0  0  0  0  0  0  0  0  0  0  0 
    3.9799   -1.4786   -2.0974 C   0  0  0  0  0  0  0  0  0  0  0  0 
    3.7009   -3.7615   -2.9117 C   0  0  0  0  0  0  0  0  0  0  0  0 
    3.5952   -2.4213   -3.1469 N   0  0  0  0  0  0  0  0  0  0  0  0 
    4.1090   -4.2669   -1.8779 O   0  0  0  0  0  0  0  0  0  0  0  0 
    2.4097    1.1590    1.5006 H   0  0  0  0  0  0  0  0  0  0  0  0 
    1.6003   -0.3956    1.2497 H   0  0  0  0  0  0  0  0  0  0  0  0 
    1.2969    0.9490    0.1393 H   0  0  0  0  0  0  0  0  0  0  0  0 
    3.7797   -1.2515   -4.8923 H   0  0  0  0  0  0  0  0  0  0  0  0 
    2.1330   -1.3328   -4.2243 H   0  0  0  0  0  0  0  0  0  0  0  0 
    2.8216   -2.7387   -5.0595 H   0  0  0  0  0  0  0  0  0  0  0  0 
    4.0063   -0.4816    0.4827 H   0  0  0  0  0  0  0  0  0  0  0  0 
    3.7094    0.8567   -0.6168 H   0  0  0  0  0  0  0  0  0  0  0  0 
    2.0312   -0.5487   -1.8638 H   0  0  0  0  0  0  0  0  0  0  0  0 
    2.3446   -1.8925   -0.7658 H   0  0  0  0  0  0  0  0  0  0  0  0 
    4.7197   -1.9860   -1.4727 H   0  0  0  0  0  0  0  0  0  0  0  0 
    4.4691   -0.6190   -2.5751 H   0  0  0  0  0  0  0  0  0  0  0  0 
    3.3771   -4.3660   -3.7824 H   0  0  0  0  0  0  0  0  0  0  0  0 
  1 10  1  0  0  0  0 
  1  9  1  0  0  0  0 
  2 13  1  0  0  0  0 
  2  7  1  0  0  0  0 
  3 15  1  0  0  0  0 
  3  1  1  0  0  0  0 
  4 18  1  0  0  0  0 
  4  3  1  0  0  0  0 
  5 19  1  0  0  0  0 
  5  4  1  0  0  0  0 
  6  8  2  0  0  0  0 
  7  6  1  0  0  0  0 
  7  5  1  0  0  0  0 
 11  1  1  0  0  0  0 
 12  2  1  0  0  0  0 
 14  2  1  0  0  0  0 
 16  3  1  0  0  0  0 
 17  4  1  0  0  0  0 
 20  5  1  0  0  0  0 
 21  6  1  0  0  0  0 
M  END 
>  <HBA> 
2 
 
>  <HBD> 
0 
 
>  <TPSA> 
20.31 
 
>  <cid> 
14230 
 
>  <dipole> 
3.74 
 
>  <excitation_energy_1> 
5.615 
 
>  <excitation_energy_2> 
5.934 
 
>  <excitation_energy_3> 
6.368 
 
>  <excitation_energy_4> 
6.452 
 
>  <homo_energy> 
-6.479 
 
>  <homo_lumo_gap> 
7.396 
 
>  <logP> 
1.511 
 
>  <lumo_energy> 
0.917 
 
>  <melting_point> 
-2.54 
 
>  <molecular_refractivity> 
34.44 
 
>  <oscillator_strength_1> 
0.0017 
 
>  <oscillator_strength_2> 
0.0134 
 
>  <oscillator_strength_3> 
0.0625 
 
>  <oscillator_strength_4> 
0.0356 
 
>  <open_babel_can_smiles> 
CN(C=O)CCCC 
 
>  <mulliken_charges> 
21 
1   -0.441797 
2   -0.316338 
3   -0.25254 
4   -0.253015 
5   -0.148511 
6   0.348267 
7   -0.356411 
8   -0.473019 
9   0.14462 
10   0.147611 
11   0.140838 
12   0.160406 
13   0.162739 
14   0.165951 
15   0.141539 
16   0.129779 
17   0.127367 
18   0.1564 
19   0.181853 
20   0.136022 
21   0.098239 
 
>  <lowdin_charges> 
21 
1   -0.445962 
2   -0.351764 
3   -0.273987 
4   -0.284265 
5   -0.202511 
6   0.039232 
7   -0.10075 
8   -0.305891 
9   0.151828 
10   0.150501 
11   0.14722 
12   0.152638 
13   0.150888 
14   0.162633 
15   0.14561 
16   0.139073 
17   0.13842 
18   0.153778 
19   0.171331 
20   0.143649 
21   0.11833 
 
$$$$ 
 
