PCCDB-ID:  71205 
public computational chemistry database (PCCDB) project, http://pccdb.org 
 
 18 17  0  0  0  0  0  0  0  0999 V2000 
    1.5896    0.2217   -0.0719 C   0  0  0  0  0  0  0  0  0  0  0  0 
    0.3733    0.7647   -0.8183 C   0  0  0  0  0  0  0  0  0  0  0  0 
   -2.2907    1.6665   -0.7652 C   0  0  0  0  0  0  0  0  0  0  0  0 
    2.7697    0.0043   -1.0166 C   0  0  0  0  0  0  0  0  0  0  0  0 
   -2.9592    0.6036   -1.6526 C   0  0  0  0  0  0  0  0  0  0  0  0 
    2.7492    0.2505   -2.1949 O   0  0  0  0  0  0  0  0  0  0  0  0 
    3.8915   -0.4987   -0.4378 O   0  0  0  0  0  0  0  0  0  0  0  0 
   -3.5414    0.9077   -2.6628 O   0  0  0  0  0  0  0  0  0  0  0  0 
   -2.8939   -0.6703   -1.2191 O   0  0  0  0  0  0  0  0  0  0  0  0 
   -0.9900    1.0731    0.3802 S   0  0  0  0  0  0  0  0  0  0  0  0 
    1.3493   -0.7302    0.4215 H   0  0  0  0  0  0  0  0  0  0  0  0 
    1.8974    0.9159    0.7226 H   0  0  0  0  0  0  0  0  0  0  0  0 
    0.0452    0.0508   -1.5786 H   0  0  0  0  0  0  0  0  0  0  0  0 
    0.6266    1.7018   -1.3205 H   0  0  0  0  0  0  0  0  0  0  0  0 
   -3.0664    2.1102   -0.1306 H   0  0  0  0  0  0  0  0  0  0  0  0 
   -1.9084    2.4591   -1.4126 H   0  0  0  0  0  0  0  0  0  0  0  0 
    3.7491   -0.6443    0.5125 H   0  0  0  0  0  0  0  0  0  0  0  0 
   -2.3652   -0.6904   -0.3935 H   0  0  0  0  0  0  0  0  0  0  0  0 
  1 11  1  0  0  0  0 
  1 12  1  0  0  0  0 
  2  1  1  0  0  0  0 
  2 10  1  0  0  0  0 
  3 15  1  0  0  0  0 
  3 10  1  0  0  0  0 
  4  7  1  0  0  0  0 
  4  1  1  0  0  0  0 
  5  9  1  0  0  0  0 
  5  3  1  0  0  0  0 
  6  4  2  0  0  0  0 
  7 17  1  0  0  0  0 
  8  5  2  0  0  0  0 
  9 18  1  0  0  0  0 
 13  2  1  0  0  0  0 
 14  2  1  0  0  0  0 
 16  3  1  0  0  0  0 
M  END 
>  <HBA> 
5 
 
>  <HBD> 
2 
 
>  <TPSA> 
99.9 
 
>  <cid> 
71205 
 
>  <dipole> 
6.04 
 
>  <excitation_energy_1> 
5.379 
 
>  <excitation_energy_2> 
5.513 
 
>  <excitation_energy_3> 
5.768 
 
>  <excitation_energy_4> 
5.92 
 
>  <homo_energy> 
-6.988 
 
>  <homo_lumo_gap> 
6.806 
 
>  <logP> 
0.279 
 
>  <lumo_energy> 
-0.182 
 
>  <melting_point> 
137.39 
 
>  <molecular_refractivity> 
37.28 
 
>  <oscillator_strength_1> 
0.0028 
 
>  <oscillator_strength_2> 
0.0008 
 
>  <oscillator_strength_3> 
0.0002 
 
>  <oscillator_strength_4> 
0.0088 
 
>  <open_babel_can_smiles> 
OC(=O)CSCCC(=O)O 
 
>  <mulliken_charges> 
18 
1   -0.420135 
2   -0.402468 
3   -0.530426 
4   0.612941 
5   0.589968 
6   -0.426396 
7   -0.559775 
8   -0.42906 
9   -0.55857 
10   0.067409 
11   0.184388 
12   0.189749 
13   0.205253 
14   0.203574 
15   0.220518 
16   0.216344 
17   0.413049 
18   0.423638 
 
>  <lowdin_charges> 
18 
1   -0.326191 
2   -0.367046 
3   -0.423794 
4   0.192805 
5   0.179608 
6   -0.226768 
7   -0.347062 
8   -0.234518 
9   -0.350426 
10   0.100641 
11   0.171324 
12   0.174763 
13   0.175363 
14   0.175924 
15   0.200374 
16   0.1915 
17   0.359362 
18   0.354142 
 
$$$$ 
 
