PCCDB-ID:  69114 
public computational chemistry database (PCCDB) project, http://pccdb.org 
 
 15 15  0  0  0  0  0  0  0  0999 V2000 
   -1.2472   -0.7001   -0.0660 C   0  0  0  0  0  0  0  0  0  0  0  0 
   -0.0420   -1.3850   -0.0986 C   0  0  0  0  0  0  0  0  0  0  0  0 
   -1.1927    0.6936    0.0505 C   0  0  0  0  0  0  0  0  0  0  0  0 
    1.1725   -0.6887   -0.0168 C   0  0  0  0  0  0  0  0  0  0  0  0 
    1.0959    0.7356    0.1001 C   0  0  0  0  0  0  0  0  0  0  0  0 
    2.5048   -1.3348   -0.0438 C   0  0  0  0  0  0  0  0  0  0  0  0 
   -0.0665    1.3963    0.1313 N   0  0  0  0  0  0  0  0  0  0  0  0 
    2.1810    1.4980    0.1856 O   0  0  0  0  0  0  0  0  0  0  0  0 
    3.5503   -0.7009    0.0322 O   0  0  0  0  0  0  0  0  0  0  0  0 
    2.5888   -2.6759   -0.1572 O   0  0  0  0  0  0  0  0  0  0  0  0 
   -2.1972   -1.2191   -0.1283 H   0  0  0  0  0  0  0  0  0  0  0  0 
   -0.0666   -2.4699   -0.1887 H   0  0  0  0  0  0  0  0  0  0  0  0 
   -2.1136    1.2747    0.0802 H   0  0  0  0  0  0  0  0  0  0  0  0 
    2.9687    0.8948    0.1524 H   0  0  0  0  0  0  0  0  0  0  0  0 
    1.7101   -3.0829   -0.2092 H   0  0  0  0  0  0  0  0  0  0  0  0 
  1  3  2  0  0  0  0 
  2  1  1  0  0  0  0 
  2  4  2  0  0  0  0 
  3 13  1  0  0  0  0 
  3  7  1  0  0  0  0 
  4  5  1  0  0  0  0 
  5  7  2  0  0  0  0 
  5  8  1  0  0  0  0 
  6  4  1  0  0  0  0 
  6  9  2  0  0  0  0 
 10  6  1  0  0  0  0 
 11  1  1  0  0  0  0 
 12  2  1  0  0  0  0 
 14  8  1  0  0  0  0 
 15 10  1  0  0  0  0 
M  END 
>  <HBA> 
3 
 
>  <HBD> 
2 
 
>  <TPSA> 
70.16 
 
>  <cid> 
69114 
 
>  <dipole> 
5.3 
 
>  <excitation_energy_1> 
4.274 
 
>  <excitation_energy_2> 
4.334 
 
>  <excitation_energy_3> 
4.95 
 
>  <excitation_energy_4> 
5.476 
 
>  <homo_energy> 
-6.912 
 
>  <homo_lumo_gap> 
4.909 
 
>  <logP> 
0.073 
 
>  <lumo_energy> 
-2.003 
 
>  <melting_point> 
177.36 
 
>  <molecular_refractivity> 
34.02 
 
>  <oscillator_strength_1> 
0.0011 
 
>  <oscillator_strength_2> 
0.1337 
 
>  <oscillator_strength_3> 
0.0001 
 
>  <oscillator_strength_4> 
0.0018 
 
>  <open_babel_can_smiles> 
OC(=O)c1cccnc1O 
 
>  <mulliken_charges> 
15 
1   -0.154658 
2   -0.17213 
3   0.054029 
4   0.005639 
5   0.47148 
6   0.591264 
7   -0.448231 
8   -0.590582 
9   -0.502368 
10   -0.567666 
11   0.147344 
12   0.132233 
13   0.158556 
14   0.450415 
15   0.424675 
 
>  <lowdin_charges> 
15 
1   -0.202677 
2   -0.118039 
3   -0.051962 
4   -0.130851 
5   0.161835 
6   0.212189 
7   -0.152397 
8   -0.332546 
9   -0.273299 
10   -0.333912 
11   0.17065 
12   0.153164 
13   0.165496 
14   0.372394 
15   0.359955 
 
$$$$ 
 
