PCCDB-ID:  61238 
public computational chemistry database (PCCDB) project, http://pccdb.org 
 
 30 29  0  0  0  0  0  0  0  0999 V2000 
    2.4768    0.2704   -1.6085 C   0  0  0  0  0  0  0  0  0  0  0  0 
    1.5000   -1.6464   -0.2855 C   0  0  0  0  0  0  0  0  0  0  0  0 
    4.0067   -1.3458   -0.4046 C   0  0  0  0  0  0  0  0  0  0  0  0 
    3.4403    3.9099    3.3040 C   0  0  0  0  0  0  0  0  0  0  0  0 
    4.1012    4.0609    0.8634 C   0  0  0  0  0  0  0  0  0  0  0  0 
    1.7269    3.4220    1.5096 C   0  0  0  0  0  0  0  0  0  0  0  0 
    2.5921    0.2362    0.9212 C   0  0  0  0  0  0  0  0  0  0  0  0 
    2.6423   -0.6200   -0.3579 C   0  0  0  0  0  0  0  0  0  0  0  0 
    3.2086    3.3580    1.8912 C   0  0  0  0  0  0  0  0  0  0  0  0 
    1.8927    0.0424    1.8812 O   0  0  0  0  0  0  0  0  0  0  0  0 
    3.5010    1.2612    0.8115 O   0  0  0  0  0  0  0  0  0  0  0  0 
    3.6394    1.9805    2.0685 O   0  0  0  0  0  0  0  0  0  0  0  0 
    2.4726   -0.3569   -2.5074 H   0  0  0  0  0  0  0  0  0  0  0  0 
    3.2920    0.9934   -1.7013 H   0  0  0  0  0  0  0  0  0  0  0  0 
    1.5294    0.8213   -1.5817 H   0  0  0  0  0  0  0  0  0  0  0  0 
    1.5236   -2.2860   -1.1752 H   0  0  0  0  0  0  0  0  0  0  0  0 
    0.5242   -1.1527   -0.2407 H   0  0  0  0  0  0  0  0  0  0  0  0 
    1.5913   -2.2785    0.6020 H   0  0  0  0  0  0  0  0  0  0  0  0 
    4.0481   -1.9949   -1.2871 H   0  0  0  0  0  0  0  0  0  0  0  0 
    4.1508   -1.9730    0.4823 H   0  0  0  0  0  0  0  0  0  0  0  0 
    4.8358   -0.6345   -0.4597 H   0  0  0  0  0  0  0  0  0  0  0  0 
    3.1665    4.9696    3.3338 H   0  0  0  0  0  0  0  0  0  0  0  0 
    4.4925    3.8148    3.5899 H   0  0  0  0  0  0  0  0  0  0  0  0 
    2.8298    3.3701    4.0341 H   0  0  0  0  0  0  0  0  0  0  0  0 
    3.8410    5.1232    0.7962 H   0  0  0  0  0  0  0  0  0  0  0  0 
    3.9785    3.6170   -0.1288 H   0  0  0  0  0  0  0  0  0  0  0  0 
    5.1542    3.9784    1.1514 H   0  0  0  0  0  0  0  0  0  0  0  0 
    1.3801    4.4612    1.5232 H   0  0  0  0  0  0  0  0  0  0  0  0 
    1.1269    2.8380    2.2128 H   0  0  0  0  0  0  0  0  0  0  0  0 
    1.5614    3.0294    0.5015 H   0  0  0  0  0  0  0  0  0  0  0  0 
  1 15  1  0  0  0  0 
  1  8  1  0  0  0  0 
  2 17  1  0  0  0  0 
  2 18  1  0  0  0  0 
  3  8  1  0  0  0  0 
  3 20  1  0  0  0  0 
  4 22  1  0  0  0  0 
  4 23  1  0  0  0  0 
  4 24  1  0  0  0  0 
  5 27  1  0  0  0  0 
  5  9  1  0  0  0  0 
  6 28  1  0  0  0  0 
  6  9  1  0  0  0  0 
  6 29  1  0  0  0  0 
  7 10  2  0  0  0  0 
  8  2  1  0  0  0  0 
  8  7  1  0  0  0  0 
  9 12  1  0  0  0  0 
  9  4  1  0  0  0  0 
 11  7  1  0  0  0  0 
 11 12  1  0  0  0  0 
 13  1  1  0  0  0  0 
 14  1  1  0  0  0  0 
 16  2  1  0  0  0  0 
 19  3  1  0  0  0  0 
 21  3  1  0  0  0  0 
 25  5  1  0  0  0  0 
 26  5  1  0  0  0  0 
 30  6  1  0  0  0  0 
M  END 
>  <HBA> 
3 
 
>  <HBD> 
0 
 
>  <TPSA> 
35.53 
 
>  <cid> 
61238 
 
>  <dipole> 
2.4 
 
>  <excitation_energy_1> 
5.561 
 
>  <excitation_energy_2> 
5.668 
 
>  <excitation_energy_3> 
6.288 
 
>  <excitation_energy_4> 
6.621 
 
>  <homo_energy> 
-7.173 
 
>  <homo_lumo_gap> 
7.304 
 
>  <logP> 
2.306 
 
>  <lumo_energy> 
0.131 
 
>  <melting_point> 
9.34 
 
>  <molecular_refractivity> 
47.52 
 
>  <oscillator_strength_1> 
0.0018 
 
>  <oscillator_strength_2> 
0.0032 
 
>  <oscillator_strength_3> 
0.0055 
 
>  <oscillator_strength_4> 
0.0219 
 
>  <open_babel_can_smiles> 
O=C(C(C)(C)C)OOC(C)(C)C 
 
>  <mulliken_charges> 
30 
1   -0.453955 
2   -0.433265 
3   -0.449118 
4   -0.46401 
5   -0.451399 
6   -0.463988 
7   0.671248 
8   -0.015596 
9   0.317752 
10   -0.460691 
11   -0.310761 
12   -0.276957 
13   0.148354 
14   0.163469 
15   0.150183 
16   0.137235 
17   0.152893 
18   0.162541 
19   0.148392 
20   0.157352 
21   0.164108 
22   0.151676 
23   0.160733 
24   0.169298 
25   0.142626 
26   0.159949 
27   0.154024 
28   0.142916 
29   0.174985 
30   0.150007 
 
>  <lowdin_charges> 
30 
1   -0.442721 
2   -0.43622 
3   -0.439685 
4   -0.443055 
5   -0.451332 
6   -0.456424 
7   0.192948 
8   -0.009108 
9   0.12796 
10   -0.233344 
11   -0.099816 
12   -0.134895 
13   0.153396 
14   0.158424 
15   0.152107 
16   0.148868 
17   0.156063 
18   0.161639 
19   0.153265 
20   0.157048 
21   0.15985 
22   0.157932 
23   0.158992 
24   0.165753 
25   0.152513 
26   0.157912 
27   0.156072 
28   0.153675 
29   0.168862 
30   0.153324 
 
$$$$ 
 
