PCCDB-ID:  14211 
public computational chemistry database (PCCDB) project, http://pccdb.org 
 
 25 24  0  0  0  0  0  0  0  0999 V2000 
    2.3271    1.6594    0.1647 C   0  0  0  0  0  0  0  0  0  0  0  0 
    1.7824   -2.2221    0.4952 C   0  0  0  0  0  0  0  0  0  0  0  0 
    1.5505   -0.7773   -1.5556 C   0  0  0  0  0  0  0  0  0  0  0  0 
    1.9333    0.2822    0.7108 C   0  0  0  0  0  0  0  0  0  0  0  0 
    4.7159   -3.2826   -2.9044 C   0  0  0  0  0  0  0  0  0  0  0  0 
    4.4781   -1.9967   -0.8717 C   0  0  0  0  0  0  0  0  0  0  0  0 
    2.2587   -0.9309   -0.1968 C   0  0  0  0  0  0  0  0  0  0  0  0 
    5.2115   -4.1664   -3.4818 N   0  0  0  0  0  0  0  0  0  0  0  0 
    5.3884   -2.5775   -0.1958 N   0  0  0  0  0  0  0  0  0  0  0  0 
    4.1328   -2.2846   -2.2265 N   0  0  0  0  0  0  0  0  0  0  0  0 
    3.7506   -0.9298   -0.3482 N   0  0  0  0  0  0  0  0  0  0  0  0 
    2.1407    2.4329    0.9177 H   0  0  0  0  0  0  0  0  0  0  0  0 
    1.7484    1.9251   -0.7264 H   0  0  0  0  0  0  0  0  0  0  0  0 
    3.3881    1.6954   -0.1022 H   0  0  0  0  0  0  0  0  0  0  0  0 
    0.6947   -2.2120    0.6317 H   0  0  0  0  0  0  0  0  0  0  0  0 
    2.2490   -2.3340    1.4803 H   0  0  0  0  0  0  0  0  0  0  0  0 
    2.0393   -3.1045   -0.1006 H   0  0  0  0  0  0  0  0  0  0  0  0 
    0.4925   -0.5431   -1.3947 H   0  0  0  0  0  0  0  0  0  0  0  0 
    1.5885   -1.7015   -2.1397 H   0  0  0  0  0  0  0  0  0  0  0  0 
    1.9863    0.0364   -2.1455 H   0  0  0  0  0  0  0  0  0  0  0  0 
    0.8556    0.2614    0.9160 H   0  0  0  0  0  0  0  0  0  0  0  0 
    2.4252    0.1213    1.6814 H   0  0  0  0  0  0  0  0  0  0  0  0 
    5.9443   -3.2200   -0.7643 H   0  0  0  0  0  0  0  0  0  0  0  0 
    3.7173   -1.5344   -2.7653 H   0  0  0  0  0  0  0  0  0  0  0  0 
    4.1836   -0.7157    0.5468 H   0  0  0  0  0  0  0  0  0  0  0  0 
  1  4  1  0  0  0  0 
  1 12  1  0  0  0  0 
  2 15  1  0  0  0  0 
  2 16  1  0  0  0  0 
  3 18  1  0  0  0  0 
  3  7  1  0  0  0  0 
  4 21  1  0  0  0  0 
  4 22  1  0  0  0  0 
  5 10  1  0  0  0  0 
  6 11  1  0  0  0  0 
  6  9  2  0  0  0  0 
  7  2  1  0  0  0  0 
  7  4  1  0  0  0  0 
  8  5  3  0  0  0  0 
 10  6  1  0  0  0  0 
 11  7  1  0  0  0  0 
 11 25  1  0  0  0  0 
 13  1  1  0  0  0  0 
 14  1  1  0  0  0  0 
 17  2  1  0  0  0  0 
 19  3  1  0  0  0  0 
 20  3  1  0  0  0  0 
 23  9  1  0  0  0  0 
 24 10  1  0  0  0  0 
M  END 
>  <HBA> 
4 
 
>  <HBD> 
2 
 
>  <TPSA> 
74.2 
 
>  <cid> 
14211 
 
>  <dipole> 
5.22 
 
>  <excitation_energy_1> 
5.741 
 
>  <excitation_energy_2> 
6.007 
 
>  <excitation_energy_3> 
6.206 
 
>  <excitation_energy_4> 
6.253 
 
>  <homo_energy> 
-6.77 
 
>  <homo_lumo_gap> 
7.015 
 
>  <logP> 
1.652 
 
>  <lumo_energy> 
0.245 
 
>  <melting_point> 
116.99 
 
>  <molecular_refractivity> 
44.74 
 
>  <oscillator_strength_1> 
0.0272 
 
>  <oscillator_strength_2> 
0.0085 
 
>  <oscillator_strength_3> 
0.0662 
 
>  <oscillator_strength_4> 
0.0104 
 
>  <open_babel_can_smiles> 
CCC(NC(=N)NC#N)(C)C 
 
>  <mulliken_charges> 
25 
1   -0.451051 
2   -0.445796 
3   -0.479822 
4   -0.273483 
5   0.518451 
6   0.596089 
7   0.210108 
8   -0.436391 
9   -0.622906 
10   -0.66912 
11   -0.618886 
12   0.149513 
13   0.14796 
14   0.161598 
15   0.146185 
16   0.154404 
17   0.159432 
18   0.156777 
19   0.156958 
20   0.153878 
21   0.143314 
22   0.135417 
23   0.303012 
24   0.370174 
25   0.334185 
 
>  <lowdin_charges> 
25 
1   -0.449634 
2   -0.449667 
3   -0.459069 
4   -0.274651 
5   0.008045 
6   0.135082 
7   0.076558 
8   -0.145752 
9   -0.432045 
10   -0.250757 
11   -0.311596 
12   0.15563 
13   0.15033 
14   0.154676 
15   0.151969 
16   0.156172 
17   0.158811 
18   0.158896 
19   0.154918 
20   0.15401 
21   0.147861 
22   0.142401 
23   0.269031 
24   0.314068 
25   0.284713 
 
$$$$ 
 
