PCCDB-ID:  9302 
public computational chemistry database (PCCDB) project, http://pccdb.org 
 
 20 20  0  0  0  0  0  0  0  0999 V2000 
    1.1044    0.2088    0.2137 C   0  0  0  0  0  0  0  0  0  0  0  0 
    5.3152   -0.1194    0.3310 C   0  0  0  0  0  0  0  0  0  0  0  0 
    4.5803   -1.1966   -0.4690 C   0  0  0  0  0  0  0  0  0  0  0  0 
    4.5546    1.1707    0.2241 C   0  0  0  0  0  0  0  0  0  0  0  0 
    3.0866   -1.1901   -0.1966 C   0  0  0  0  0  0  0  0  0  0  0  0 
    5.3146    2.4698    0.2584 C   0  0  0  0  0  0  0  0  0  0  0  0 
    4.5556    3.5933    0.1660 N   0  0  0  0  0  0  0  0  0  0  0  0 
    3.2702    1.2278    0.1443 N   0  0  0  0  0  0  0  0  0  0  0  0 
    2.5554    0.0525    0.1479 N   0  0  0  0  0  0  0  0  0  0  0  0 
    2.3666   -2.1687   -0.3092 O   0  0  0  0  0  0  0  0  0  0  0  0 
    6.5372    2.4733    0.3607 O   0  0  0  0  0  0  0  0  0  0  0  0 
    0.6800   -0.6591    0.7184 H   0  0  0  0  0  0  0  0  0  0  0  0 
    0.6652    0.2818   -0.7884 H   0  0  0  0  0  0  0  0  0  0  0  0 
    0.8881    1.1178    0.7751 H   0  0  0  0  0  0  0  0  0  0  0  0 
    6.3448    0.0251   -0.0023 H   0  0  0  0  0  0  0  0  0  0  0  0 
    5.3661   -0.4041    1.3933 H   0  0  0  0  0  0  0  0  0  0  0  0 
    4.9540   -2.2020   -0.2615 H   0  0  0  0  0  0  0  0  0  0  0  0 
    4.7079   -1.0235   -1.5473 H   0  0  0  0  0  0  0  0  0  0  0  0 
    3.5490    3.5273    0.1340 H   0  0  0  0  0  0  0  0  0  0  0  0 
    5.0097    4.4909    0.2405 H   0  0  0  0  0  0  0  0  0  0  0  0 
  1 12  1  0  0  0  0 
  1 14  1  0  0  0  0 
  2 16  1  0  0  0  0 
  3 17  1  0  0  0  0 
  3  5  1  0  0  0  0 
  3  2  1  0  0  0  0 
  4  6  1  0  0  0  0 
  4  2  1  0  0  0  0 
  5  9  1  0  0  0  0 
  6 11  2  0  0  0  0 
  7 20  1  0  0  0  0 
  7  6  1  0  0  0  0 
  8  9  1  0  0  0  0 
  8  4  2  0  0  0  0 
  9  1  1  0  0  0  0 
 10  5  2  0  0  0  0 
 13  1  1  0  0  0  0 
 15  2  1  0  0  0  0 
 18  3  1  0  0  0  0 
 19  7  1  0  0  0  0 
M  END 
>  <HBA> 
5 
 
>  <HBD> 
1 
 
>  <TPSA> 
75.76 
 
>  <cid> 
9302 
 
>  <dipole> 
2.59 
 
>  <excitation_energy_1> 
4.03 
 
>  <excitation_energy_2> 
4.428 
 
>  <excitation_energy_3> 
4.48 
 
>  <excitation_energy_4> 
5.18 
 
>  <homo_energy> 
-6.588 
 
>  <homo_lumo_gap> 
4.988 
 
>  <logP> 
-0.846 
 
>  <lumo_energy> 
-1.6 
 
>  <melting_point> 
113.55 
 
>  <molecular_refractivity> 
45.77 
 
>  <oscillator_strength_1> 
0.0044 
 
>  <oscillator_strength_2> 
0.1734 
 
>  <oscillator_strength_3> 
0.0761 
 
>  <oscillator_strength_4> 
0.0432 
 
>  <open_babel_can_smiles> 
O=C1CCC(=NN1C)C(=O)N 
 
>  <mulliken_charges> 
20 
1   -0.300656 
2   -0.344907 
3   -0.371126 
4   0.278198 
5   0.603848 
6   0.576236 
7   -0.75923 
8   -0.347665 
9   -0.304527 
10   -0.49086 
11   -0.516405 
12   0.193512 
13   0.170432 
14   0.16925 
15   0.196535 
16   0.178432 
17   0.185536 
18   0.183257 
19   0.356207 
20   0.343932 
 
>  <lowdin_charges> 
20 
1   -0.34784 
2   -0.285308 
3   -0.296165 
4   -0.002493 
5   0.159653 
6   0.150136 
7   -0.450935 
8   -0.102943 
9   -0.039173 
10   -0.275842 
11   -0.302821 
12   0.17863 
13   0.158063 
14   0.16596 
15   0.183661 
16   0.168188 
17   0.177921 
18   0.171689 
19   0.294935 
20   0.294683 
 
$$$$ 
 
