PCCDB-ID:  12374 
public computational chemistry database (PCCDB) project, http://pccdb.org 
 
 22 21  0  0  0  0  0  0  0  0999 V2000 
    1.1351   -0.3911   -0.1500 C   0  0  0  0  0  0  0  0  0  0  0  0 
    1.6115   -1.0856    1.1327 C   0  0  0  0  0  0  0  0  0  0  0  0 
    2.1873   -0.3859   -1.2660 C   0  0  0  0  0  0  0  0  0  0  0  0 
    0.5561   -1.0868    2.2448 C   0  0  0  0  0  0  0  0  0  0  0  0 
    1.7095    0.3101   -2.5417 C   0  0  0  0  0  0  0  0  0  0  0  0 
    1.0306   -1.7766    3.5174 C   0  0  0  0  0  0  0  0  0  0  0  0 
    2.6682    0.2639   -3.5935 O   0  0  0  0  0  0  0  0  0  0  0  0 
   -0.0246   -1.7119    4.4721 O   0  0  0  0  0  0  0  0  0  0  0  0 
    0.8445    0.6432    0.0860 H   0  0  0  0  0  0  0  0  0  0  0  0 
    0.2231   -0.8876   -0.5121 H   0  0  0  0  0  0  0  0  0  0  0  0 
    2.5254   -0.5904    1.4933 H   0  0  0  0  0  0  0  0  0  0  0  0 
    1.8991   -2.1206    0.8964 H   0  0  0  0  0  0  0  0  0  0  0  0 
    2.4777   -1.4139   -1.5200 H   0  0  0  0  0  0  0  0  0  0  0  0 
    3.0996    0.1155   -0.9055 H   0  0  0  0  0  0  0  0  0  0  0  0 
   -0.3570   -1.5892    1.8992 H   0  0  0  0  0  0  0  0  0  0  0  0 
    0.2700   -0.0570    2.4963 H   0  0  0  0  0  0  0  0  0  0  0  0 
    1.4165    1.3499   -2.3176 H   0  0  0  0  0  0  0  0  0  0  0  0 
    0.8216   -0.1954   -2.9373 H   0  0  0  0  0  0  0  0  0  0  0  0 
    1.9391   -1.2778    3.8958 H   0  0  0  0  0  0  0  0  0  0  0  0 
    1.3019   -2.8227    3.2958 H   0  0  0  0  0  0  0  0  0  0  0  0 
    3.4574    0.7367   -3.2864 H   0  0  0  0  0  0  0  0  0  0  0  0 
    0.2773   -2.1536    5.2799 H   0  0  0  0  0  0  0  0  0  0  0  0 
  1  9  1  0  0  0  0 
  1  2  1  0  0  0  0 
  2 11  1  0  0  0  0 
  2  4  1  0  0  0  0 
  3 14  1  0  0  0  0 
  3  1  1  0  0  0  0 
  4 16  1  0  0  0  0 
  4  6  1  0  0  0  0 
  5 17  1  0  0  0  0 
  5  3  1  0  0  0  0 
  6 19  1  0  0  0  0 
  6  8  1  0  0  0  0 
  7 21  1  0  0  0  0 
  7  5  1  0  0  0  0 
  8 22  1  0  0  0  0 
 10  1  1  0  0  0  0 
 12  2  1  0  0  0  0 
 13  3  1  0  0  0  0 
 15  4  1  0  0  0  0 
 18  5  1  0  0  0  0 
 20  6  1  0  0  0  0 
M  END 
>  <HBA> 
2 
 
>  <HBD> 
2 
 
>  <TPSA> 
40.46 
 
>  <cid> 
12374 
 
>  <dipole> 
2.45 
 
>  <excitation_energy_1> 
6.344 
 
>  <excitation_energy_2> 
6.436 
 
>  <excitation_energy_3> 
7.075 
 
>  <excitation_energy_4> 
7.264 
 
>  <homo_energy> 
-7.08 
 
>  <homo_lumo_gap> 
9.143 
 
>  <logP> 
0.531 
 
>  <lumo_energy> 
2.063 
 
>  <melting_point> 
10.67 
 
>  <molecular_refractivity> 
33.28 
 
>  <oscillator_strength_1> 
0.0007 
 
>  <oscillator_strength_2> 
0.0098 
 
>  <oscillator_strength_3> 
0.005 
 
>  <oscillator_strength_4> 
0.0215 
 
>  <open_babel_can_smiles> 
OCCCCCCO 
 
>  <mulliken_charges> 
22 
1   -0.259035 
2   -0.260538 
3   -0.277431 
4   -0.260655 
5   -0.026352 
6   -0.0274 
7   -0.615477 
8   -0.619796 
9   0.13172 
10   0.134947 
11   0.128534 
12   0.131299 
13   0.145037 
14   0.118438 
15   0.145067 
16   0.144132 
17   0.11701 
18   0.145406 
19   0.114665 
20   0.115517 
21   0.384726 
22   0.390187 
 
>  <lowdin_charges> 
22 
1   -0.272776 
2   -0.272678 
3   -0.292994 
4   -0.279825 
5   -0.135353 
6   -0.132767 
7   -0.468655 
8   -0.47435 
9   0.138711 
10   0.141943 
11   0.138161 
12   0.138291 
13   0.146284 
14   0.133571 
15   0.148558 
16   0.14678 
17   0.122323 
18   0.146317 
19   0.122613 
20   0.121585 
21   0.340076 
22   0.344185 
 
$$$$ 
 
