PCCDB-ID:  10015 
public computational chemistry database (PCCDB) project, http://pccdb.org 
 
 40 39  0  0  0  0  0  0  0  0999 V2000 
    4.9120    1.7861    4.5119 C   0  0  0  0  0  0  0  0  0  0  0  0 
    2.8332   -9.2507   -3.8670 C   0  0  0  0  0  0  0  0  0  0  0  0 
    5.0100    1.1992    3.1002 C   0  0  0  0  0  0  0  0  0  0  0  0 
    3.1960   -8.7599   -2.4617 C   0  0  0  0  0  0  0  0  0  0  0  0 
    5.5478   -0.2378    3.0794 C   0  0  0  0  0  0  0  0  0  0  0  0 
    4.1646   -7.5701   -2.4684 C   0  0  0  0  0  0  0  0  0  0  0  0 
    5.6551   -0.8302    1.6684 C   0  0  0  0  0  0  0  0  0  0  0  0 
    4.5358   -7.0760   -1.0643 C   0  0  0  0  0  0  0  0  0  0  0  0 
    6.1947   -2.2663    1.6547 C   0  0  0  0  0  0  0  0  0  0  0  0 
    5.5097   -5.8908   -1.0770 C   0  0  0  0  0  0  0  0  0  0  0  0 
    6.3274   -2.8456    0.2295 C   0  0  0  0  0  0  0  0  0  0  0  0 
    5.8972   -5.4165    0.3406 C   0  0  0  0  0  0  0  0  0  0  0  0 
    6.8891   -4.2617    0.2727 C   0  0  0  0  0  0  0  0  0  0  0  0 
    8.0903   -4.4633    0.2512 O   0  0  0  0  0  0  0  0  0  0  0  0 
    4.5239    2.8109    4.4933 H   0  0  0  0  0  0  0  0  0  0  0  0 
    5.8941    1.8106    4.9998 H   0  0  0  0  0  0  0  0  0  0  0  0 
    4.2441    1.1884    5.1444 H   0  0  0  0  0  0  0  0  0  0  0  0 
    2.1399  -10.0986   -3.8281 H   0  0  0  0  0  0  0  0  0  0  0  0 
    3.7257   -9.5750   -4.4161 H   0  0  0  0  0  0  0  0  0  0  0  0 
    2.3553   -8.4563   -4.4535 H   0  0  0  0  0  0  0  0  0  0  0  0 
    5.6585    1.8366    2.4826 H   0  0  0  0  0  0  0  0  0  0  0  0 
    4.0194    1.2217    2.6239 H   0  0  0  0  0  0  0  0  0  0  0  0 
    3.6418   -9.5857   -1.8893 H   0  0  0  0  0  0  0  0  0  0  0  0 
    2.2795   -8.4777   -1.9241 H   0  0  0  0  0  0  0  0  0  0  0  0 
    4.8974   -0.8771    3.6949 H   0  0  0  0  0  0  0  0  0  0  0  0 
    6.5375   -0.2613    3.5589 H   0  0  0  0  0  0  0  0  0  0  0  0 
    3.7182   -6.7427   -3.0402 H   0  0  0  0  0  0  0  0  0  0  0  0 
    5.0809   -7.8516   -3.0080 H   0  0  0  0  0  0  0  0  0  0  0  0 
    6.3087   -0.1937    1.0544 H   0  0  0  0  0  0  0  0  0  0  0  0 
    4.6666   -0.8070    1.1864 H   0  0  0  0  0  0  0  0  0  0  0  0 
    4.9828   -7.9029   -0.4935 H   0  0  0  0  0  0  0  0  0  0  0  0 
    3.6211   -6.7914   -0.5235 H   0  0  0  0  0  0  0  0  0  0  0  0 
    5.5367   -2.9092    2.2569 H   0  0  0  0  0  0  0  0  0  0  0  0 
    7.1817   -2.2954    2.1344 H   0  0  0  0  0  0  0  0  0  0  0  0 
    5.0636   -5.0573   -1.6384 H   0  0  0  0  0  0  0  0  0  0  0  0 
    6.4264   -6.1711   -1.6122 H   0  0  0  0  0  0  0  0  0  0  0  0 
    7.0160   -2.2246   -0.3536 H   0  0  0  0  0  0  0  0  0  0  0  0 
    5.3467   -2.8337   -0.2644 H   0  0  0  0  0  0  0  0  0  0  0  0 
    6.3726   -6.2404    0.8837 H   0  0  0  0  0  0  0  0  0  0  0  0 
    4.9927   -5.1169    0.8867 H   0  0  0  0  0  0  0  0  0  0  0  0 
  1 16  1  0  0  0  0 
  1 17  1  0  0  0  0 
  2 18  1  0  0  0  0 
  2  4  1  0  0  0  0 
  3  1  1  0  0  0  0 
  4 24  1  0  0  0  0 
  4 23  1  0  0  0  0 
  5  3  1  0  0  0  0 
  5 26  1  0  0  0  0 
  5 25  1  0  0  0  0 
  6  4  1  0  0  0  0 
  6  8  1  0  0  0  0 
  7  5  1  0  0  0  0 
  8 32  1  0  0  0  0 
  8 31  1  0  0  0  0 
  9  7  1  0  0  0  0 
  9 34  1  0  0  0  0 
  9 33  1  0  0  0  0 
 10  8  1  0  0  0  0 
 10 12  1  0  0  0  0 
 11 13  1  0  0  0  0 
 11  9  1  0  0  0  0 
 12 39  1  0  0  0  0 
 12 40  1  0  0  0  0 
 13 12  1  0  0  0  0 
 14 13  2  0  0  0  0 
 15  1  1  0  0  0  0 
 19  2  1  0  0  0  0 
 20  2  1  0  0  0  0 
 21  3  1  0  0  0  0 
 22  3  1  0  0  0  0 
 27  6  1  0  0  0  0 
 28  6  1  0  0  0  0 
 29  7  1  0  0  0  0 
 30  7  1  0  0  0  0 
 35 10  1  0  0  0  0 
 36 10  1  0  0  0  0 
 37 11  1  0  0  0  0 
 38 11  1  0  0  0  0 
M  END 
>  <HBA> 
1 
 
>  <HBD> 
0 
 
>  <TPSA> 
17.07 
 
>  <cid> 
10015 
 
>  <dipole> 
2.79 
 
>  <excitation_energy_1> 
4.228 
 
>  <excitation_energy_2> 
6.068 
 
>  <excitation_energy_3> 
6.371 
 
>  <excitation_energy_4> 
6.697 
 
>  <homo_energy> 
-6.348 
 
>  <homo_lumo_gap> 
6.068 
 
>  <logP> 
4.496 
 
>  <lumo_energy> 
-0.28 
 
>  <melting_point> 
-9.82 
 
>  <molecular_refractivity> 
64.81 
 
>  <oscillator_strength_1> 
0.0005 
 
>  <oscillator_strength_2> 
0.0193 
 
>  <oscillator_strength_3> 
0.0001 
 
>  <oscillator_strength_4> 
0.0139 
 
>  <open_babel_can_smiles> 
CCCCCCC(=O)CCCCCC 
 
>  <mulliken_charges> 
40 
1   -0.441742 
2   -0.441802 
3   -0.247402 
4   -0.247452 
5   -0.247384 
6   -0.247435 
7   -0.251067 
8   -0.250986 
9   -0.269866 
10   -0.270236 
11   -0.334353 
12   -0.334578 
13   0.442938 
14   -0.450822 
15   0.142586 
16   0.14278 
17   0.141424 
18   0.142655 
19   0.142805 
20   0.141417 
21   0.131819 
22   0.129992 
23   0.131879 
24   0.130053 
25   0.127165 
26   0.131123 
27   0.127153 
28   0.131092 
29   0.13373 
30   0.128155 
31   0.133888 
32   0.128266 
33   0.134848 
34   0.154629 
35   0.135115 
36   0.154316 
37   0.160378 
38   0.137205 
39   0.160231 
40   0.137481 
 
>  <lowdin_charges> 
40 
1   -0.444388 
2   -0.446411 
3   -0.272891 
4   -0.273308 
5   -0.275572 
6   -0.27594 
7   -0.274408 
8   -0.274818 
9   -0.269546 
10   -0.269881 
11   -0.306163 
12   -0.306052 
13   0.162681 
14   -0.243608 
15   0.148835 
16   0.146676 
17   0.147696 
18   0.150208 
19   0.14759 
20   0.147449 
21   0.141065 
22   0.138143 
23   0.140638 
24   0.13902 
25   0.139074 
26   0.139161 
27   0.138591 
28   0.139973 
29   0.142477 
30   0.137508 
31   0.1421 
32   0.138413 
33   0.141669 
34   0.150526 
35   0.141244 
36   0.15112 
37   0.163219 
38   0.147096 
39   0.162651 
40   0.148162 
 
$$$$ 
 
