PCCDB-ID:  11505 
public computational chemistry database (PCCDB) project, http://pccdb.org 
 
 19 19  0  0  0  0  0  0  0  0999 V2000 
    1.0014   -0.1675    0.2187 C   0  0  0  0  0  0  0  0  0  0  0  0 
    3.2162   -1.2822   -0.3144 C   0  0  0  0  0  0  0  0  0  0  0  0 
    3.2087    1.0772    0.1277 C   0  0  0  0  0  0  0  0  0  0  0  0 
    4.5923   -1.2416   -0.5304 C   0  0  0  0  0  0  0  0  0  0  0  0 
    4.5849    1.1228   -0.0961 C   0  0  0  0  0  0  0  0  0  0  0  0 
    6.7982   -0.0001   -0.6289 C   0  0  0  0  0  0  0  0  0  0  0  0 
    2.4985   -0.1247    0.0179 C   0  0  0  0  0  0  0  0  0  0  0  0 
    5.2967   -0.0359   -0.4228 C   0  0  0  0  0  0  0  0  0  0  0  0 
    7.2574   -0.8982   -1.6335 O   0  0  0  0  0  0  0  0  0  0  0  0 
    0.6779   -1.1348    0.6181 H   0  0  0  0  0  0  0  0  0  0  0  0 
    0.4668   -0.0133   -0.7284 H   0  0  0  0  0  0  0  0  0  0  0  0 
    0.6662    0.6129    0.9103 H   0  0  0  0  0  0  0  0  0  0  0  0 
    2.6891   -2.2305   -0.3983 H   0  0  0  0  0  0  0  0  0  0  0  0 
    2.6768    1.9911    0.3837 H   0  0  0  0  0  0  0  0  0  0  0  0 
    5.1336   -2.1475   -0.7884 H   0  0  0  0  0  0  0  0  0  0  0  0 
    5.1112    2.0720   -0.0138 H   0  0  0  0  0  0  0  0  0  0  0  0 
    7.3183   -0.3146    0.2841 H   0  0  0  0  0  0  0  0  0  0  0  0 
    7.1189    1.0336   -0.8376 H   0  0  0  0  0  0  0  0  0  0  0  0 
    6.7652   -0.6944   -2.4448 H   0  0  0  0  0  0  0  0  0  0  0  0 
  1 10  1  0  0  0  0 
  1 12  1  0  0  0  0 
  2  7  2  0  0  0  0 
  3 14  1  0  0  0  0 
  4  8  2  0  0  0  0 
  4  2  1  0  0  0  0 
  5 16  1  0  0  0  0 
  5  3  2  0  0  0  0 
  6  8  1  0  0  0  0 
  6 17  1  0  0  0  0 
  7  3  1  0  0  0  0 
  7  1  1  0  0  0  0 
  8  5  1  0  0  0  0 
  9  6  1  0  0  0  0 
 11  1  1  0  0  0  0 
 13  2  1  0  0  0  0 
 15  4  1  0  0  0  0 
 18  6  1  0  0  0  0 
 19  9  1  0  0  0  0 
M  END 
>  <HBA> 
1 
 
>  <HBD> 
1 
 
>  <TPSA> 
20.23 
 
>  <cid> 
11505 
 
>  <dipole> 
1.82 
 
>  <excitation_energy_1> 
5.155 
 
>  <excitation_energy_2> 
5.656 
 
>  <excitation_energy_3> 
5.961 
 
>  <excitation_energy_4> 
6.218 
 
>  <homo_energy> 
-6.327 
 
>  <homo_lumo_gap> 
6.294 
 
>  <logP> 
1.487 
 
>  <lumo_energy> 
-0.033 
 
>  <melting_point> 
30.61 
 
>  <molecular_refractivity> 
37.54 
 
>  <oscillator_strength_1> 
0.0017 
 
>  <oscillator_strength_2> 
0.1059 
 
>  <oscillator_strength_3> 
0.0044 
 
>  <oscillator_strength_4> 
0.0353 
 
>  <open_babel_can_smiles> 
OCc1ccc(cc1)C 
 
>  <mulliken_charges> 
19 
1   -0.529573 
2   -0.179423 
3   -0.179113 
4   -0.172869 
5   -0.180306 
6   -0.090614 
7   0.177869 
8   0.099788 
9   -0.609911 
10   0.15743 
11   0.165143 
12   0.156559 
13   0.122129 
14   0.121361 
15   0.141237 
16   0.121897 
17   0.16305 
18   0.127482 
19   0.387864 
 
>  <lowdin_charges> 
19 
1   -0.443434 
2   -0.16556 
3   -0.167097 
4   -0.16223 
5   -0.165848 
6   -0.131482 
7   0.000899 
8   -0.038074 
9   -0.46262 
10   0.158235 
11   0.161566 
12   0.158728 
13   0.154248 
14   0.154507 
15   0.164381 
16   0.153905 
17   0.157006 
18   0.130438 
19   0.342431 
 
$$$$ 
 
