PCCDB-ID:  20108 
public computational chemistry database (PCCDB) project, http://pccdb.org 
 
 25 25  0  0  0  0  0  0  0  0999 V2000 
    0.9189   -0.4176    0.1580 C   0  0  0  0  0  0  0  0  0  0  0  0 
    8.1278    1.2742   -2.3053 C   0  0  0  0  0  0  0  0  0  0  0  0 
    2.4372   -0.2482    0.1335 C   0  0  0  0  0  0  0  0  0  0  0  0 
    6.9437    0.8555   -1.4361 C   0  0  0  0  0  0  0  0  0  0  0  0 
    6.1050   -0.8477    2.9395 C   0  0  0  0  0  0  0  0  0  0  0  0 
    4.2726   -0.5637    1.5796 C   0  0  0  0  0  0  0  0  0  0  0  0 
    6.5502    0.0188    0.7271 C   0  0  0  0  0  0  0  0  0  0  0  0 
    3.0111   -0.6500    1.4071 N   0  0  0  0  0  0  0  0  0  0  0  0 
    7.4074    0.4317   -0.1219 N   0  0  0  0  0  0  0  0  0  0  0  0 
    4.8308   -0.9484    2.8027 N   0  0  0  0  0  0  0  0  0  0  0  0 
    6.9807   -0.3938    1.9905 N   0  0  0  0  0  0  0  0  0  0  0  0 
    5.1747   -0.0909    0.5894 N   0  0  0  0  0  0  0  0  0  0  0  0 
    0.4745   -0.1181   -0.7982 H   0  0  0  0  0  0  0  0  0  0  0  0 
    0.4818    0.1935    0.9539 H   0  0  0  0  0  0  0  0  0  0  0  0 
    0.6568   -1.4621    0.3543 H   0  0  0  0  0  0  0  0  0  0  0  0 
    7.7904    1.6010   -3.2953 H   0  0  0  0  0  0  0  0  0  0  0  0 
    8.8225    0.4376   -2.4326 H   0  0  0  0  0  0  0  0  0  0  0  0 
    8.6741    2.0974   -1.8337 H   0  0  0  0  0  0  0  0  0  0  0  0 
    2.6771    0.8067   -0.0965 H   0  0  0  0  0  0  0  0  0  0  0  0 
    2.8534   -0.8497   -0.6958 H   0  0  0  0  0  0  0  0  0  0  0  0 
    6.3925    0.0437   -1.9437 H   0  0  0  0  0  0  0  0  0  0  0  0 
    6.2414    1.7037   -1.3509 H   0  0  0  0  0  0  0  0  0  0  0  0 
    6.5648   -1.1412    3.8819 H   0  0  0  0  0  0  0  0  0  0  0  0 
    7.9761   -0.3377    2.1573 H   0  0  0  0  0  0  0  0  0  0  0  0 
    4.7875    0.1931   -0.2986 H   0  0  0  0  0  0  0  0  0  0  0  0 
  1 15  1  0  0  0  0 
  1 14  1  0  0  0  0 
  2 18  1  0  0  0  0 
  2  4  1  0  0  0  0 
  3  1  1  0  0  0  0 
  3  8  1  0  0  0  0 
  4 22  1  0  0  0  0 
  4  9  1  0  0  0  0 
  5 23  1  0  0  0  0 
  6 10  2  0  0  0  0 
  7 11  1  0  0  0  0 
  8  6  1  0  0  0  0 
  9  7  2  0  0  0  0 
 10  5  1  0  0  0  0 
 11 24  1  0  0  0  0 
 11  5  1  0  0  0  0 
 12  7  1  0  0  0  0 
 12  6  1  0  0  0  0 
 13  1  1  0  0  0  0 
 16  2  1  0  0  0  0 
 17  2  1  0  0  0  0 
 19  3  1  0  0  0  0 
 20  3  1  0  0  0  0 
 21  4  1  0  0  0  0 
 25 12  1  0  0  0  0 
M  RAD  2   5   2   8   2 
M  END 
>  <HBA> 
5 
 
>  <HBD> 
2 
 
>  <TPSA> 
62.73 
 
>  <cid> 
20108 
 
>  <dipole> 
3.0 
 
>  <excitation_energy_1> 
4.827 
 
>  <excitation_energy_2> 
4.917 
 
>  <excitation_energy_3> 
5.075 
 
>  <excitation_energy_4> 
5.424 
 
>  <homo_energy> 
-6.297 
 
>  <homo_lumo_gap> 
5.576 
 
>  <logP> 
0.881 
 
>  <lumo_energy> 
-0.721 
 
>  <melting_point> 
118.61 
 
>  <molecular_refractivity> 
48.05 
 
>  <oscillator_strength_1> 
0.0001 
 
>  <oscillator_strength_2> 
0.112 
 
>  <oscillator_strength_3> 
0.0479 
 
>  <oscillator_strength_4> 
0.0015 
 
>  <open_babel_can_smiles> 
CC[N]C1=N[CH]N/C(=N/CC)/N1 
 
>  <mulliken_charges> 
25 
1   -0.432158 
2   -0.434681 
3   -0.16155 
4   -0.154567 
5   0.238924 
6   0.650018 
7   0.759031 
8   -0.445103 
9   -0.497573 
10   -0.438087 
11   -0.62699 
12   -0.743889 
13   0.131049 
14   0.157556 
15   0.157817 
16   0.136827 
17   0.154483 
18   0.154884 
19   0.126405 
20   0.127795 
21   0.130259 
22   0.132056 
23   0.17047 
24   0.35226 
25   0.354764 
 
>  <lowdin_charges> 
25 
1   -0.442859 
2   -0.443627 
3   -0.207382 
4   -0.202679 
5   -0.017962 
6   0.117766 
7   0.13708 
8   -0.21134 
9   -0.267209 
10   -0.179585 
11   -0.221378 
12   -0.272304 
13   0.144864 
14   0.15785 
15   0.155797 
16   0.147627 
17   0.155511 
18   0.156153 
19   0.126816 
20   0.130049 
21   0.131059 
22   0.131437 
23   0.170681 
24   0.305606 
25   0.298029 
 
$$$$ 
 
