PCCDB-ID:  31079 
public computational chemistry database (PCCDB) project, http://pccdb.org 
 
 32 33  0  0  0  0  0  0  0  0999 V2000 
    3.6825   -0.6539   -0.6786 C   0  0  0  0  0  0  0  0  0  0  0  0 
    1.6140   -0.9680    0.7600 C   0  0  0  0  0  0  0  0  0  0  0  0 
    3.8675    0.8230    2.0838 C   0  0  0  0  0  0  0  0  0  0  0  0 
    2.6411    2.4652    0.8454 C   0  0  0  0  0  0  0  0  0  0  0  0 
    4.3161    1.8125    2.9542 C   0  0  0  0  0  0  0  0  0  0  0  0 
    3.0826    3.4589    1.7175 C   0  0  0  0  0  0  0  0  0  0  0  0 
    4.5813    3.9541    5.0901 C   0  0  0  0  0  0  0  0  0  0  0  0 
    4.7061    5.5076    3.2630 C   0  0  0  0  0  0  0  0  0  0  0  0 
    5.0287    4.9415    5.9653 C   0  0  0  0  0  0  0  0  0  0  0  0 
    5.1518    6.5031    4.1248 C   0  0  0  0  0  0  0  0  0  0  0  0 
    2.5242    0.0529    0.0507 C   0  0  0  0  0  0  0  0  0  0  0  0 
    3.0211    1.1276    1.0073 C   0  0  0  0  0  0  0  0  0  0  0  0 
    3.9330    3.1556    2.7924 C   0  0  0  0  0  0  0  0  0  0  0  0 
    4.4095    4.2105    3.7207 C   0  0  0  0  0  0  0  0  0  0  0  0 
    5.3161    6.2229    5.4854 C   0  0  0  0  0  0  0  0  0  0  0  0 
    5.7577    7.2360    6.2917 O   0  0  0  0  0  0  0  0  0  0  0  0 
    3.2965   -1.3742   -1.4098 H   0  0  0  0  0  0  0  0  0  0  0  0 
    4.3210   -1.2036    0.0232 H   0  0  0  0  0  0  0  0  0  0  0  0 
    4.3141    0.0662   -1.2102 H   0  0  0  0  0  0  0  0  0  0  0  0 
    1.2166   -1.6967    0.0432 H   0  0  0  0  0  0  0  0  0  0  0  0 
    0.7673   -0.4720    1.2470 H   0  0  0  0  0  0  0  0  0  0  0  0 
    2.1633   -1.5231    1.5299 H   0  0  0  0  0  0  0  0  0  0  0  0 
    4.1936   -0.2024    2.2416 H   0  0  0  0  0  0  0  0  0  0  0  0 
    1.9782    2.7350    0.0258 H   0  0  0  0  0  0  0  0  0  0  0  0 
    4.9969    1.5447    3.7578 H   0  0  0  0  0  0  0  0  0  0  0  0 
    2.7422    4.4811    1.5761 H   0  0  0  0  0  0  0  0  0  0  0  0 
    4.3375    2.9724    5.4862 H   0  0  0  0  0  0  0  0  0  0  0  0 
    4.6094    5.7340    2.2048 H   0  0  0  0  0  0  0  0  0  0  0  0 
    5.1437    4.7180    7.0248 H   0  0  0  0  0  0  0  0  0  0  0  0 
    5.3873    7.4983    3.7608 H   0  0  0  0  0  0  0  0  0  0  0  0 
    1.9170    0.5576   -0.7134 H   0  0  0  0  0  0  0  0  0  0  0  0 
    5.8308    6.9049    7.2003 H   0  0  0  0  0  0  0  0  0  0  0  0 
  1 18  1  0  0  0  0 
  1 11  1  0  0  0  0 
  2 21  1  0  0  0  0 
  2 22  1  0  0  0  0 
  3 23  1  0  0  0  0 
  3  5  2  0  0  0  0 
  4 12  2  0  0  0  0 
  4  6  1  0  0  0  0 
  5 25  1  0  0  0  0 
  6 13  2  0  0  0  0 
  7 27  1  0  0  0  0 
  7  9  2  0  0  0  0 
  8 14  2  0  0  0  0 
  8 10  1  0  0  0  0 
  9 29  1  0  0  0  0 
 10 15  2  0  0  0  0 
 11  2  1  0  0  0  0 
 11 12  1  0  0  0  0 
 12  3  1  0  0  0  0 
 13  5  1  0  0  0  0 
 13 14  1  0  0  0  0 
 14  7  1  0  0  0  0 
 15  9  1  0  0  0  0 
 15 16  1  0  0  0  0 
 16 32  1  0  0  0  0 
 17  1  1  0  0  0  0 
 19  1  1  0  0  0  0 
 20  2  1  0  0  0  0 
 24  4  1  0  0  0  0 
 26  6  1  0  0  0  0 
 28  8  1  0  0  0  0 
 30 10  1  0  0  0  0 
 31 11  1  0  0  0  0 
M  END 
>  <HBA> 
1 
 
>  <HBD> 
1 
 
>  <TPSA> 
20.23 
 
>  <cid> 
31079 
 
>  <dipole> 
1.34 
 
>  <excitation_energy_1> 
4.58 
 
>  <excitation_energy_2> 
4.61 
 
>  <excitation_energy_3> 
4.771 
 
>  <excitation_energy_4> 
4.908 
 
>  <homo_energy> 
-5.519 
 
>  <homo_lumo_gap> 
5.075 
 
>  <logP> 
4.183 
 
>  <lumo_energy> 
-0.444 
 
>  <melting_point> 
85.07 
 
>  <molecular_refractivity> 
68.48 
 
>  <oscillator_strength_1> 
0.0364 
 
>  <oscillator_strength_2> 
0.5697 
 
>  <oscillator_strength_3> 
0.0152 
 
>  <oscillator_strength_4> 
0.0033 
 
>  <open_babel_can_smiles> 
Oc1ccc(cc1)c1ccc(cc1)C(C)C 
 
>  <mulliken_charges> 
32 
1   -0.43928 
2   -0.437572 
3   -0.191704 
4   -0.203724 
5   -0.178376 
6   -0.174429 
7   -0.181508 
8   -0.18148 
9   -0.199231 
10   -0.163741 
11   -0.161047 
12   0.191741 
13   0.091322 
14   0.089273 
15   0.353223 
16   -0.64261 
17   0.140777 
18   0.142994 
19   0.150056 
20   0.140568 
21   0.149543 
22   0.142835 
23   0.123063 
24   0.12189 
25   0.126971 
26   0.128548 
27   0.133622 
28   0.134247 
29   0.118481 
30   0.140149 
31   0.128134 
32   0.407268 
 
>  <lowdin_charges> 
32 
1   -0.445598 
2   -0.444676 
3   -0.16344 
4   -0.168176 
5   -0.162476 
6   -0.16228 
7   -0.149649 
8   -0.146963 
9   -0.211181 
10   -0.183379 
11   -0.119653 
12   -0.002611 
13   -0.004574 
14   -0.021223 
15   0.100561 
16   -0.376121 
17   0.149246 
18   0.14848 
19   0.1543 
20   0.149045 
21   0.153547 
22   0.148511 
23   0.152706 
24   0.154031 
25   0.157109 
26   0.156635 
27   0.160009 
28   0.159393 
29   0.151525 
30   0.167025 
31   0.143042 
32   0.356834 
 
$$$$ 
 
