PCCDB-ID:  30409 
public computational chemistry database (PCCDB) project, http://pccdb.org 
 
 29 30  0  0  0  0  0  0  0  0999 V2000 
    2.5916   -1.4761   -3.6476 C   0  0  0  0  0  0  0  0  0  0  0  0 
    3.9301   -1.4084   -2.9055 C   0  0  0  0  0  0  0  0  0  0  0  0 
    8.8850   -1.5523    2.4504 C   0  0  0  0  0  0  0  0  0  0  0  0 
    8.2030   -0.4687    1.9171 C   0  0  0  0  0  0  0  0  0  0  0  0 
    3.7416   -1.1106   -1.4111 C   0  0  0  0  0  0  0  0  0  0  0  0 
    7.4364   -3.0887    1.2333 C   0  0  0  0  0  0  0  0  0  0  0  0 
    5.8465    0.0991   -0.7357 C   0  0  0  0  0  0  0  0  0  0  0  0 
    8.5006   -2.8504    2.0941 C   0  0  0  0  0  0  0  0  0  0  0  0 
    6.7509   -2.0031    0.6890 C   0  0  0  0  0  0  0  0  0  0  0  0 
    7.1486   -0.6952    1.0238 C   0  0  0  0  0  0  0  0  0  0  0  0 
    5.5159   -2.2254   -0.1216 C   0  0  0  0  0  0  0  0  0  0  0  0 
    4.9902   -1.0643   -0.6482 N   0  0  0  0  0  0  0  0  0  0  0  0 
    9.2336   -3.9880    2.6604 N   0  0  0  0  0  0  0  0  0  0  0  0 
    4.9810   -3.3214   -0.2360 O   0  0  0  0  0  0  0  0  0  0  0  0 
   10.1571   -3.7414    3.4381 O   0  0  0  0  0  0  0  0  0  0  0  0 
    8.8847   -5.1189    2.3242 O   0  0  0  0  0  0  0  0  0  0  0  0 
    6.4972    0.3789    0.5047 O   0  0  0  0  0  0  0  0  0  0  0  0 
    2.7420   -1.6871   -4.7114 H   0  0  0  0  0  0  0  0  0  0  0  0 
    2.0420   -0.5297   -3.5703 H   0  0  0  0  0  0  0  0  0  0  0  0 
    1.9533   -2.2674   -3.2375 H   0  0  0  0  0  0  0  0  0  0  0  0 
    4.5680   -0.6380   -3.3611 H   0  0  0  0  0  0  0  0  0  0  0  0 
    4.4617   -2.3622   -3.0013 H   0  0  0  0  0  0  0  0  0  0  0  0 
    9.7158   -1.4153    3.1316 H   0  0  0  0  0  0  0  0  0  0  0  0 
    8.4777    0.5510    2.1644 H   0  0  0  0  0  0  0  0  0  0  0  0 
    3.1246   -1.8885   -0.9547 H   0  0  0  0  0  0  0  0  0  0  0  0 
    3.2319   -0.1486   -1.2716 H   0  0  0  0  0  0  0  0  0  0  0  0 
    7.1202   -4.0976    0.9981 H   0  0  0  0  0  0  0  0  0  0  0  0 
    5.2418    0.9763   -0.9697 H   0  0  0  0  0  0  0  0  0  0  0  0 
    6.6288   -0.0210   -1.5013 H   0  0  0  0  0  0  0  0  0  0  0  0 
  1 19  1  0  0  0  0 
  1 20  1  0  0  0  0 
  1  2  1  0  0  0  0 
  2  5  1  0  0  0  0 
  3 23  1  0  0  0  0 
  4 24  1  0  0  0  0 
  4  3  2  0  0  0  0 
  5 26  1  0  0  0  0 
  5 25  1  0  0  0  0 
  5 12  1  0  0  0  0 
  6  8  2  0  0  0  0 
  7 12  1  0  0  0  0 
  7 17  1  0  0  0  0 
  8  3  1  0  0  0  0 
  8 13  1  0  0  0  0 
  9 10  2  0  0  0  0 
  9  6  1  0  0  0  0 
 10  4  1  0  0  0  0 
 11  9  1  0  0  0  0 
 12 11  1  0  0  0  0 
 13 15  2  0  0  0  0 
 14 11  2  0  0  0  0 
 16 13  2  0  0  0  0 
 17 10  1  0  0  0  0 
 18  1  1  0  0  0  0 
 21  2  1  0  0  0  0 
 22  2  1  0  0  0  0 
 27  6  1  0  0  0  0 
 28  7  1  0  0  0  0 
 29  7  1  0  0  0  0 
M  END 
>  <HBA> 
3 
 
>  <HBD> 
0 
 
>  <TPSA> 
75.36 
 
>  <cid> 
30409 
 
>  <dipole> 
7.23 
 
>  <excitation_energy_1> 
3.761 
 
>  <excitation_energy_2> 
4.02 
 
>  <excitation_energy_3> 
4.228 
 
>  <excitation_energy_4> 
4.298 
 
>  <homo_energy> 
-7.021 
 
>  <homo_lumo_gap> 
4.667 
 
>  <logP> 
2.258 
 
>  <lumo_energy> 
-2.354 
 
>  <melting_point> 
108.0 
 
>  <molecular_refractivity> 
66.26 
 
>  <oscillator_strength_1> 
0.0004 
 
>  <oscillator_strength_2> 
0.0489 
 
>  <oscillator_strength_3> 
0.0808 
 
>  <oscillator_strength_4> 
0.0546 
 
>  <open_babel_can_smiles> 
CCCN1COc2c(C1=O)cc(cc2)N(=O)=O 
 
>  <mulliken_charges> 
29 
1   -0.449022 
2   -0.261347 
3   -0.147058 
4   -0.186146 
5   -0.144251 
6   -0.202871 
7   0.081746 
8   0.271652 
9   0.004324 
10   0.348166 
11   0.610268 
12   -0.473439 
13   0.379048 
14   -0.516982 
15   -0.40052 
16   -0.392038 
17   -0.507974 
18   0.154485 
19   0.143608 
20   0.157185 
21   0.131091 
22   0.167716 
23   0.19002 
24   0.162016 
25   0.187144 
26   0.144369 
27   0.211577 
28   0.174193 
29   0.163041 
 
>  <lowdin_charges> 
29 
1   -0.443569 
2   -0.284724 
3   -0.116762 
4   -0.174493 
5   -0.197342 
6   -0.098899 
7   -0.056164 
8   -0.01495 
9   -0.078938 
10   0.118989 
11   0.159955 
12   -0.116947 
13   0.308209 
14   -0.29164 
15   -0.252166 
16   -0.243136 
17   -0.180657 
18   0.155779 
19   0.147523 
20   0.155626 
21   0.139355 
22   0.158301 
23   0.192294 
24   0.178264 
25   0.1746 
26   0.146799 
27   0.204285 
28   0.167795 
29   0.142613 
 
$$$$ 
 
