PCCDB-ID:  26151 
public computational chemistry database (PCCDB) project, http://pccdb.org 
 
 30 31  0  0  0  0  0  0  0  0999 V2000 
    4.2531    2.2733   -1.8513 C   0  0  0  0  0  0  0  0  0  0  0  0 
    4.5007   -6.2097   -0.0287 C   0  0  0  0  0  0  0  0  0  0  0  0 
    3.3048    0.2621    1.2501 C   0  0  0  0  0  0  0  0  0  0  0  0 
    3.4292    1.3182    0.3469 C   0  0  0  0  0  0  0  0  0  0  0  0 
    3.8956   -0.9704    0.9810 C   0  0  0  0  0  0  0  0  0  0  0  0 
    6.5097   -2.5560   -1.1373 C   0  0  0  0  0  0  0  0  0  0  0  0 
    7.0972   -3.7846   -1.4162 C   0  0  0  0  0  0  0  0  0  0  0  0 
    4.7323   -0.0937   -1.1008 C   0  0  0  0  0  0  0  0  0  0  0  0 
    4.6379   -3.6876   -0.1576 C   0  0  0  0  0  0  0  0  0  0  0  0 
    4.1459    1.1502   -0.8445 C   0  0  0  0  0  0  0  0  0  0  0  0 
    5.2051   -4.9338   -0.4212 C   0  0  0  0  0  0  0  0  0  0  0  0 
    4.6230   -1.1703   -0.2050 C   0  0  0  0  0  0  0  0  0  0  0  0 
    5.2608   -2.4767   -0.5022 C   0  0  0  0  0  0  0  0  0  0  0  0 
    6.4616   -4.9853   -1.0662 C   0  0  0  0  0  0  0  0  0  0  0  0 
    7.0901   -6.2153   -1.2959 N   0  0  0  0  0  0  0  0  0  0  0  0 
    4.1727    3.2530   -1.3682 H   0  0  0  0  0  0  0  0  0  0  0  0 
    3.4529    2.2142   -2.6014 H   0  0  0  0  0  0  0  0  0  0  0  0 
    5.2055    2.2392   -2.3914 H   0  0  0  0  0  0  0  0  0  0  0  0 
    3.5644   -5.9973    0.4953 H   0  0  0  0  0  0  0  0  0  0  0  0 
    5.1251   -6.8275    0.6304 H   0  0  0  0  0  0  0  0  0  0  0  0 
    4.2481   -6.8297   -0.9025 H   0  0  0  0  0  0  0  0  0  0  0  0 
    2.7554    0.4055    2.1773 H   0  0  0  0  0  0  0  0  0  0  0  0 
    2.9696    2.2791    0.5676 H   0  0  0  0  0  0  0  0  0  0  0  0 
    3.8214   -1.7755    1.7066 H   0  0  0  0  0  0  0  0  0  0  0  0 
    7.0404   -1.6444   -1.3978 H   0  0  0  0  0  0  0  0  0  0  0  0 
    8.0720   -3.8205   -1.8988 H   0  0  0  0  0  0  0  0  0  0  0  0 
    5.2708   -0.2389   -2.0346 H   0  0  0  0  0  0  0  0  0  0  0  0 
    3.6586   -3.6593    0.3146 H   0  0  0  0  0  0  0  0  0  0  0  0 
    7.8169   -6.1869   -2.0009 H   0  0  0  0  0  0  0  0  0  0  0  0 
    6.4650   -6.9969   -1.4488 H   0  0  0  0  0  0  0  0  0  0  0  0 
  1 16  1  0  0  0  0 
  1 10  1  0  0  0  0 
  2 19  1  0  0  0  0 
  2 20  1  0  0  0  0 
  3 22  1  0  0  0  0 
  4 23  1  0  0  0  0 
  4  3  2  0  0  0  0 
  5  3  1  0  0  0  0 
  5 24  1  0  0  0  0 
  6 13  1  0  0  0  0 
  7  6  2  0  0  0  0 
  7 14  1  0  0  0  0 
  8 10  2  0  0  0  0 
  8 12  1  0  0  0  0 
  9 28  1  0  0  0  0 
 10  4  1  0  0  0  0 
 11  9  1  0  0  0  0 
 11  2  1  0  0  0  0 
 12  5  2  0  0  0  0 
 13 12  1  0  0  0  0 
 13  9  2  0  0  0  0 
 14 11  2  0  0  0  0 
 15 14  1  0  0  0  0 
 17  1  1  0  0  0  0 
 18  1  1  0  0  0  0 
 21  2  1  0  0  0  0 
 25  6  1  0  0  0  0 
 26  7  1  0  0  0  0 
 27  8  1  0  0  0  0 
 29 15  1  0  0  0  0 
 30 15  1  0  0  0  0 
M  END 
>  <HBA> 
1 
 
>  <HBD> 
1 
 
>  <TPSA> 
26.02 
 
>  <cid> 
26151 
 
>  <dipole> 
2.13 
 
>  <excitation_energy_1> 
4.373 
 
>  <excitation_energy_2> 
4.453 
 
>  <excitation_energy_3> 
4.5 
 
>  <excitation_energy_4> 
4.636 
 
>  <homo_energy> 
-5.127 
 
>  <homo_lumo_gap> 
4.865 
 
>  <logP> 
4.134 
 
>  <lumo_energy> 
-0.261 
 
>  <melting_point> 
100.42 
 
>  <molecular_refractivity> 
66.21 
 
>  <oscillator_strength_1> 
0.4632 
 
>  <oscillator_strength_2> 
0.0288 
 
>  <oscillator_strength_3> 
0.0085 
 
>  <oscillator_strength_4> 
0.0275 
 
>  <open_babel_can_smiles> 
Cc1cccc(c1)c1ccc(c(c1)C)N 
 
>  <mulliken_charges> 
30 
1   -0.528508 
2   -0.553517 
3   -0.131745 
4   -0.181005 
5   -0.180439 
6   -0.188253 
7   -0.17584 
8   -0.235065 
9   -0.259425 
10   0.17717 
11   0.16886 
12   0.096207 
13   0.098262 
14   0.245883 
15   -0.791999 
16   0.154034 
17   0.164041 
18   0.154907 
19   0.161018 
20   0.168041 
21   0.147114 
22   0.12434 
23   0.116674 
24   0.125931 
25   0.1269 
26   0.114638 
27   0.11911 
28   0.121804 
29   0.318906 
30   0.321955 
 
>  <lowdin_charges> 
30 
1   -0.441889 
2   -0.446539 
3   -0.153795 
4   -0.17424 
5   -0.172836 
6   -0.156452 
7   -0.197383 
8   -0.175787 
9   -0.161482 
10   0.001499 
11   -0.037077 
12   0.004579 
13   -0.027322 
14   0.049369 
15   -0.489799 
16   0.156132 
17   0.161349 
18   0.156796 
19   0.161318 
20   0.161822 
21   0.149576 
22   0.155159 
23   0.152078 
24   0.157444 
25   0.158248 
26   0.150499 
27   0.153358 
28   0.154245 
29   0.274728 
30   0.276404 
 
$$$$ 
 
