PCCDB-ID:  20866 
public computational chemistry database (PCCDB) project, http://pccdb.org 
 
 29 31  0  0  1  0  0  0  0  0999 V2000 
    2.5933    0.6098   -0.2615 C   0  0  0  0  0  0  0  0  0  0  0  0 
    2.3610   -0.7761   -0.1068 C   0  0  0  0  0  0  0  0  0  0  0  0 
   -2.1809    1.4594    0.0558 C   0  0  0  0  0  0  0  0  0  0  0  0 
    1.5338    1.4883   -0.2571 C   0  0  0  0  0  0  0  0  0  0  0  0 
   -0.9009    1.9310   -0.1124 C   0  0  0  0  0  0  0  0  0  0  0  0 
    1.0794   -1.2523    0.0681 C   0  0  0  0  0  0  0  0  0  0  0  0 
   -2.4263    0.0874    0.2878 C   0  0  0  0  0  0  0  0  0  0  0  0 
   -4.1634   -4.6115    0.5195 C   0  0  0  0  0  0  0  0  0  0  0  0 
   -4.5706   -3.7238   -0.6882 C   0  0  0  0  0  0  0  0  0  0  0  0 
    0.1992    1.0327   -0.0850 C   0  0  0  0  0  0  0  0  0  0  0  0 
   -0.0333   -0.3698    0.1037 C   0  0  0  0  0  0  0  0  0  0  0  0 
   -1.3822   -0.8230    0.3123 C   0  0  0  0  0  0  0  0  0  0  0  0 
   -2.7204   -2.9550    0.3951 C   0  0  3  0  0  0  0  0  0  0  0  0 
   -2.8685   -4.0927    0.9772 N   0  0  0  0  0  0  0  0  0  0  0  0 
   -3.7581   -2.5192   -0.4396 N   0  0  0  0  0  0  0  0  0  0  0  0 
   -1.5805   -2.1941    0.5619 N   0  0  0  0  0  0  0  0  0  0  0  0 
    3.6074    0.9767   -0.3944 H   0  0  0  0  0  0  0  0  0  0  0  0 
    3.1960   -1.4705   -0.1377 H   0  0  0  0  0  0  0  0  0  0  0  0 
   -3.0232    2.1459    0.0398 H   0  0  0  0  0  0  0  0  0  0  0  0 
    1.7026    2.5544   -0.3898 H   0  0  0  0  0  0  0  0  0  0  0  0 
   -0.7123    2.9900   -0.2683 H   0  0  0  0  0  0  0  0  0  0  0  0 
    0.9189   -2.3227    0.1494 H   0  0  0  0  0  0  0  0  0  0  0  0 
   -3.4382   -0.2558    0.4695 H   0  0  0  0  0  0  0  0  0  0  0  0 
   -4.0919   -5.6707    0.2492 H   0  0  0  0  0  0  0  0  0  0  0  0 
   -4.9015   -4.5320    1.3311 H   0  0  0  0  0  0  0  0  0  0  0  0 
   -5.6376   -3.4832   -0.7140 H   0  0  0  0  0  0  0  0  0  0  0  0 
   -4.2979   -4.1972   -1.6429 H   0  0  0  0  0  0  0  0  0  0  0  0 
   -3.4763   -1.9806   -1.2520 H   0  0  0  0  0  0  0  0  0  0  0  0 
   -0.9108   -2.6552    1.1638 H   0  0  0  0  0  0  0  0  0  0  0  0 
  1  4  2  0  0  0  0 
  1  2  1  0  0  0  0 
  2  6  2  0  0  0  0 
  3  7  2  0  0  0  0 
  4 10  1  0  0  0  0 
  5 10  2  0  0  0  0 
  5  3  1  0  0  0  0 
  6 11  1  0  0  0  0 
  6 22  1  0  0  0  0 
  7 12  1  0  0  0  0 
  7 23  1  0  0  0  0 
  8 14  1  0  0  0  0 
  8 25  1  0  0  0  0 
  9 15  1  0  0  0  0 
  9  8  1  0  0  0  0 
 10 11  1  0  0  0  0 
 11 12  2  0  0  0  0 
 12 16  1  0  0  0  0 
 13 16  1  0  0  0  0 
 13 14  1  0  0  0  0 
 15 13  1  0  0  0  0 
 16 29  1  0  0  0  0 
 17  1  1  0  0  0  0 
 18  2  1  0  0  0  0 
 19  3  1  0  0  0  0 
 20  4  1  0  0  0  0 
 21  5  1  0  0  0  0 
 24  8  1  0  0  0  0 
 26  9  1  0  0  0  0 
 27  9  1  0  0  0  0 
 28 15  1  0  0  0  0 
M  RAD  2  13   2  14   2 
M  END 
>  <HBA> 
3 
 
>  <HBD> 
2 
 
>  <TPSA> 
36.42 
 
>  <cid> 
20866 
 
>  <dipole> 
2.19 
 
>  <excitation_energy_1> 
3.674 
 
>  <excitation_energy_2> 
4.158 
 
>  <excitation_energy_3> 
4.326 
 
>  <excitation_energy_4> 
4.759 
 
>  <homo_energy> 
-5.268 
 
>  <homo_lumo_gap> 
4.201 
 
>  <logP> 
2.048 
 
>  <lumo_energy> 
-1.067 
 
>  <melting_point> 
149.5 
 
>  <molecular_refractivity> 
74.48 
 
>  <oscillator_strength_1> 
0.1681 
 
>  <oscillator_strength_2> 
0.0205 
 
>  <oscillator_strength_3> 
0.0065 
 
>  <oscillator_strength_4> 
0.0128 
 
>  <open_babel_can_smiles> 
C1CN[C]([N]1)Nc1cccc2c1cccc2 
 
>  <mulliken_charges> 
29 
1   -0.131217 
2   -0.133556 
3   -0.14712 
4   -0.196507 
5   -0.18821 
6   -0.193917 
7   -0.18769 
8   -0.147118 
9   -0.147712 
10   0.125477 
11   0.081407 
12   0.269312 
13   0.673858 
14   -0.502288 
15   -0.612623 
16   -0.757941 
17   0.131575 
18   0.131853 
19   0.131683 
20   0.131376 
21   0.126988 
22   0.131367 
23   0.162978 
24   0.143691 
25   0.145278 
26   0.150756 
27   0.141475 
28   0.322816 
29   0.344011 
 
>  <lowdin_charges> 
29 
1   -0.156114 
2   -0.157774 
3   -0.153059 
4   -0.152409 
5   -0.171026 
6   -0.16319 
7   -0.200162 
8   -0.201488 
9   -0.207103 
10   0.005458 
11   -0.021122 
12   0.048168 
13   0.118395 
14   -0.285389 
15   -0.325435 
16   -0.249025 
17   0.158706 
18   0.160459 
19   0.160496 
20   0.15672 
21   0.156063 
22   0.157246 
23   0.172584 
24   0.144805 
25   0.142439 
26   0.147785 
27   0.136383 
28   0.277752 
29   0.299838 
 
$$$$ 
 
