PCCDB-ID:  68290 
public computational chemistry database (PCCDB) project, http://pccdb.org 
 
 30 29  0  0  0  0  0  0  0  0999 V2000 
    1.8246   -3.0175    1.6064 C   0  0  0  0  0  0  0  0  0  0  0  0 
    1.5479    1.0607   -0.2415 C   0  0  0  0  0  0  0  0  0  0  0  0 
    7.1595   -1.4683    0.3737 C   0  0  0  0  0  0  0  0  0  0  0  0 
    7.2983    0.9430   -0.3812 C   0  0  0  0  0  0  0  0  0  0  0  0 
    1.9147   -1.4998    1.7859 C   0  0  0  0  0  0  0  0  0  0  0  0 
    2.1572   -0.3363   -0.4165 C   0  0  0  0  0  0  0  0  0  0  0  0 
    5.0415   -0.0959    0.0566 C   0  0  0  0  0  0  0  0  0  0  0  0 
    6.5240   -0.0739    0.4700 C   0  0  0  0  0  0  0  0  0  0  0  0 
    4.1304   -0.7791    1.0840 C   0  0  0  0  0  0  0  0  0  0  0  0 
    2.7884   -0.8594    0.7944 N   0  0  0  0  0  0  0  0  0  0  0  0 
    4.5761   -1.2294    2.1388 O   0  0  0  0  0  0  0  0  0  0  0  0 
    1.1488   -3.4512    2.3528 H   0  0  0  0  0  0  0  0  0  0  0  0 
    2.8129   -3.4683    1.7341 H   0  0  0  0  0  0  0  0  0  0  0  0 
    1.4453   -3.2834    0.6125 H   0  0  0  0  0  0  0  0  0  0  0  0 
    1.0608    1.3837   -1.1690 H   0  0  0  0  0  0  0  0  0  0  0  0 
    2.3175    1.7964    0.0157 H   0  0  0  0  0  0  0  0  0  0  0  0 
    0.7958    1.0693    0.5548 H   0  0  0  0  0  0  0  0  0  0  0  0 
    8.2075   -1.4414    0.6951 H   0  0  0  0  0  0  0  0  0  0  0  0 
    7.1411   -1.8366   -0.6617 H   0  0  0  0  0  0  0  0  0  0  0  0 
    6.6272   -2.1812    1.0080 H   0  0  0  0  0  0  0  0  0  0  0  0 
    8.3522    0.9809   -0.0816 H   0  0  0  0  0  0  0  0  0  0  0  0 
    6.8854    1.9544   -0.2797 H   0  0  0  0  0  0  0  0  0  0  0  0 
    7.2684    0.6762   -1.4462 H   0  0  0  0  0  0  0  0  0  0  0  0 
    2.3089   -1.2667    2.7770 H   0  0  0  0  0  0  0  0  0  0  0  0 
    0.9221   -1.0431    1.7010 H   0  0  0  0  0  0  0  0  0  0  0  0 
    2.8859   -0.3241   -1.2297 H   0  0  0  0  0  0  0  0  0  0  0  0 
    1.3765   -1.0455   -0.7187 H   0  0  0  0  0  0  0  0  0  0  0  0 
    4.9450   -0.5973   -0.9173 H   0  0  0  0  0  0  0  0  0  0  0  0 
    4.6828    0.9312   -0.1002 H   0  0  0  0  0  0  0  0  0  0  0  0 
    6.5654    0.2418    1.5195 H   0  0  0  0  0  0  0  0  0  0  0  0 
  1 13  1  0  0  0  0 
  1  5  1  0  0  0  0 
  1 12  1  0  0  0  0 
  2 16  1  0  0  0  0 
  2 17  1  0  0  0  0 
  3  8  1  0  0  0  0 
  3 18  1  0  0  0  0 
  3 20  1  0  0  0  0 
  4 22  1  0  0  0  0 
  4 21  1  0  0  0  0 
  4  8  1  0  0  0  0 
  5 24  1  0  0  0  0 
  6  2  1  0  0  0  0 
  6 10  1  0  0  0  0 
  7  8  1  0  0  0  0 
  7  9  1  0  0  0  0 
  8 30  1  0  0  0  0 
  9 11  2  0  0  0  0 
 10  9  1  0  0  0  0 
 10  5  1  0  0  0  0 
 14  1  1  0  0  0  0 
 15  2  1  0  0  0  0 
 19  3  1  0  0  0  0 
 23  4  1  0  0  0  0 
 25  5  1  0  0  0  0 
 26  6  1  0  0  0  0 
 27  6  1  0  0  0  0 
 28  7  1  0  0  0  0 
 29  7  1  0  0  0  0 
M  END 
>  <HBA> 
2 
 
>  <HBD> 
0 
 
>  <TPSA> 
20.31 
 
>  <cid> 
68290 
 
>  <dipole> 
3.45 
 
>  <excitation_energy_1> 
5.565 
 
>  <excitation_energy_2> 
5.666 
 
>  <excitation_energy_3> 
6.006 
 
>  <excitation_energy_4> 
6.111 
 
>  <homo_energy> 
-6.294 
 
>  <homo_lumo_gap> 
7.225 
 
>  <logP> 
1.901 
 
>  <lumo_energy> 
0.931 
 
>  <melting_point> 
-4.53 
 
>  <molecular_refractivity> 
48.47 
 
>  <oscillator_strength_1> 
0.0015 
 
>  <oscillator_strength_2> 
0.0174 
 
>  <oscillator_strength_3> 
0.0151 
 
>  <oscillator_strength_4> 
0.049 
 
>  <open_babel_can_smiles> 
CCN(C(=O)CC(C)C)CC 
 
>  <mulliken_charges> 
30 
1   -0.443384 
2   -0.443027 
3   -0.45092 
4   -0.44808 
5   -0.142527 
6   -0.149846 
7   -0.377761 
8   -0.052653 
9   0.602334 
10   -0.412588 
11   -0.528624 
12   0.143987 
13   0.175107 
14   0.138938 
15   0.14801 
16   0.156848 
17   0.156162 
18   0.136705 
19   0.124296 
20   0.173343 
21   0.143431 
22   0.135297 
23   0.133685 
24   0.180703 
25   0.135638 
26   0.157754 
27   0.152149 
28   0.153199 
29   0.153313 
30   0.148511 
 
>  <lowdin_charges> 
30 
1   -0.451408 
2   -0.455639 
3   -0.447683 
4   -0.441216 
5   -0.194727 
6   -0.199282 
7   -0.308319 
8   -0.113743 
9   0.160157 
10   -0.10818 
11   -0.322073 
12   0.153775 
13   0.163931 
14   0.144445 
15   0.154812 
16   0.154305 
17   0.154289 
18   0.14575 
19   0.136391 
20   0.165225 
21   0.148491 
22   0.143488 
23   0.140891 
24   0.167875 
25   0.141649 
26   0.156143 
27   0.150487 
28   0.154322 
29   0.155626 
30   0.150216 
 
$$$$ 
 
