PCCDB-ID:  61242 
public computational chemistry database (PCCDB) project, http://pccdb.org 
 
 19 19  0  0  0  0  0  0  0  0999 V2000 
    3.6599    0.9591    2.3384 C   0  0  0  0  0  0  0  0  0  0  0  0 
    3.7380    0.7808    1.0177 C   0  0  0  0  0  0  0  0  0  0  0  0 
    6.3289    3.2200   -4.3355 C   0  0  0  0  0  0  0  0  0  0  0  0 
    6.3227    1.8287   -4.2187 C   0  0  0  0  0  0  0  0  0  0  0  0 
    5.7132    3.9986   -3.3539 C   0  0  0  0  0  0  0  0  0  0  0  0 
    5.7092    1.2201   -3.1245 C   0  0  0  0  0  0  0  0  0  0  0  0 
    5.0920    3.4042   -2.2540 C   0  0  0  0  0  0  0  0  0  0  0  0 
    5.1030    2.0127   -2.1505 C   0  0  0  0  0  0  0  0  0  0  0  0 
    4.5138    1.7231    0.1742 C   0  0  0  0  0  0  0  0  0  0  0  0 
    5.1155    2.6971    0.5654 O   0  0  0  0  0  0  0  0  0  0  0  0 
    4.4478    1.3168   -1.1330 O   0  0  0  0  0  0  0  0  0  0  0  0 
    3.0990    0.2799    2.9731 H   0  0  0  0  0  0  0  0  0  0  0  0 
    4.1629    1.7976    2.8115 H   0  0  0  0  0  0  0  0  0  0  0  0 
    3.2493   -0.0457    0.5111 H   0  0  0  0  0  0  0  0  0  0  0  0 
    6.8098    3.6945   -5.1861 H   0  0  0  0  0  0  0  0  0  0  0  0 
    6.7961    1.2130   -4.9785 H   0  0  0  0  0  0  0  0  0  0  0  0 
    5.7124    5.0817   -3.4397 H   0  0  0  0  0  0  0  0  0  0  0  0 
    5.6888    0.1406   -3.0136 H   0  0  0  0  0  0  0  0  0  0  0  0 
    4.6198    4.0072   -1.4899 H   0  0  0  0  0  0  0  0  0  0  0  0 
  1 13  1  0  0  0  0 
  1 12  1  0  0  0  0 
  2  1  2  0  0  0  0 
  3  4  2  0  0  0  0 
  3  5  1  0  0  0  0 
  4  6  1  0  0  0  0 
  5  7  2  0  0  0  0 
  6 18  1  0  0  0  0 
  6  8  2  0  0  0  0 
  7  8  1  0  0  0  0 
  7 19  1  0  0  0  0 
  8 11  1  0  0  0  0 
  9 10  2  0  0  0  0 
  9  2  1  0  0  0  0 
 11  9  1  0  0  0  0 
 14  2  1  0  0  0  0 
 15  3  1  0  0  0  0 
 16  4  1  0  0  0  0 
 17  5  1  0  0  0  0 
M  END 
>  <HBA> 
2 
 
>  <HBD> 
0 
 
>  <TPSA> 
26.3 
 
>  <cid> 
61242 
 
>  <dipole> 
1.49 
 
>  <excitation_energy_1> 
4.349 
 
>  <excitation_energy_2> 
4.533 
 
>  <excitation_energy_3> 
4.844 
 
>  <excitation_energy_4> 
5.38 
 
>  <homo_energy> 
-6.514 
 
>  <homo_lumo_gap> 
5.056 
 
>  <logP> 
1.778 
 
>  <lumo_energy> 
-1.459 
 
>  <melting_point> 
7.88 
 
>  <molecular_refractivity> 
42.27 
 
>  <oscillator_strength_1> 
0.1246 
 
>  <oscillator_strength_2> 
0.0028 
 
>  <oscillator_strength_3> 
0.003 
 
>  <oscillator_strength_4> 
0.0102 
 
>  <open_babel_can_smiles> 
C=CC(=O)Oc1ccccc1 
 
>  <mulliken_charges> 
19 
1   -0.300648 
2   -0.137074 
3   -0.122863 
4   -0.138415 
5   -0.144719 
6   -0.164646 
7   -0.138859 
8   0.343581 
9   0.601169 
10   -0.470027 
11   -0.533918 
12   0.160677 
13   0.18308 
14   0.158192 
15   0.131761 
16   0.134983 
17   0.136862 
18   0.140987 
19   0.159877 
 
>  <lowdin_charges> 
19 
1   -0.263312 
2   -0.187126 
3   -0.162687 
4   -0.151602 
5   -0.146427 
6   -0.169951 
7   -0.169539 
8   0.101652 
9   0.206082 
10   -0.249648 
11   -0.16012 
12   0.172151 
13   0.181562 
14   0.173141 
15   0.160338 
16   0.161996 
17   0.15934 
18   0.165711 
19   0.17844 
 
$$$$ 
 
