PCCDB-ID:  17913 
public computational chemistry database (PCCDB) project, http://pccdb.org 
 
 10 10  0  0  0  0  0  0  0  0999 V2000 
   -1.0019    0.2476   -0.0010 C   0  0  0  0  0  0  0  0  0  0  0  0 
   -0.3509   -0.9687    0.0007 C   0  0  0  0  0  0  0  0  0  0  0  0 
    0.2716    1.0327    0.0004 C   0  0  0  0  0  0  0  0  0  0  0  0 
    1.0087   -0.3443    0.0006 C   0  0  0  0  0  0  0  0  0  0  0  0 
   -2.2608    0.6921   -0.0035 O   0  0  0  0  0  0  0  0  0  0  0  0 
   -0.6792   -2.2627    0.0005 O   0  0  0  0  0  0  0  0  0  0  0  0 
    0.5633    2.1998    0.0009 O   0  0  0  0  0  0  0  0  0  0  0  0 
    2.1416   -0.7488   -0.0001 O   0  0  0  0  0  0  0  0  0  0  0  0 
   -2.9012   -0.0393   -0.0123 H   0  0  0  0  0  0  0  0  0  0  0  0 
   -1.6430   -2.3899    0.0062 H   0  0  0  0  0  0  0  0  0  0  0  0 
  1  3  1  0  0  0  0 
  1  2  2  0  0  0  0 
  3  4  1  0  0  0  0 
  3  7  2  0  0  0  0 
  4  2  1  0  0  0  0 
  5  1  1  0  0  0  0 
  6  2  1  0  0  0  0 
  6 10  1  0  0  0  0 
  8  4  2  0  0  0  0 
  9  5  1  0  0  0  0 
M  END 
>  <HBA> 
4 
 
>  <HBD> 
2 
 
>  <TPSA> 
74.6 
 
>  <cid> 
17913 
 
>  <dipole> 
7.44 
 
>  <excitation_energy_1> 
3.703 
 
>  <excitation_energy_2> 
3.751 
 
>  <excitation_energy_3> 
4.156 
 
>  <excitation_energy_4> 
4.608 
 
>  <homo_energy> 
-6.46 
 
>  <homo_lumo_gap> 
5.097 
 
>  <logP> 
-0.534 
 
>  <lumo_energy> 
-1.363 
 
>  <melting_point> 
79.33 
 
>  <molecular_refractivity> 
22.3 
 
>  <oscillator_strength_1> 
0.0003 
 
>  <oscillator_strength_2> 
0.0 
 
>  <oscillator_strength_3> 
0.0109 
 
>  <oscillator_strength_4> 
0.0 
 
>  <open_babel_can_smiles> 
OC1=C(O)C(=O)C1=O 
 
>  <mulliken_charges> 
10 
1   0.233981 
2   0.233409 
3   0.369739 
4   0.369905 
5   -0.585197 
6   -0.585206 
7   -0.433546 
8   -0.433586 
9   0.415251 
10   0.41525 
 
>  <lowdin_charges> 
10 
1   0.035655 
2   0.034058 
3   0.106493 
4   0.107854 
5   -0.315649 
6   -0.312361 
7   -0.194779 
8   -0.19536 
9   0.368529 
10   0.365558 
 
$$$$ 
 
