PCCDB-ID:  66979 
public computational chemistry database (PCCDB) project, http://pccdb.org 
 
 28 27  0  0  0  0  0  0  0  0999 V2000 
    2.1037    3.6763   -1.4127 C   0  0  0  0  0  0  0  0  0  0  0  0 
    0.8391    2.4681   -3.0602 C   0  0  0  0  0  0  0  0  0  0  0  0 
    6.3566    3.2411    0.9262 C   0  0  0  0  0  0  0  0  0  0  0  0 
    8.3537    1.9138    0.7767 C   0  0  0  0  0  0  0  0  0  0  0  0 
    4.1230    1.4418   -1.5686 C   0  0  0  0  0  0  0  0  0  0  0  0 
    5.4090    1.8006   -1.5437 C   0  0  0  0  0  0  0  0  0  0  0  0 
    3.1342    1.8487   -2.6280 C   0  0  0  0  0  0  0  0  0  0  0  0 
    6.4210    1.3125   -0.5420 C   0  0  0  0  0  0  0  0  0  0  0  0 
    1.8959    2.3890   -2.0624 N   0  0  0  0  0  0  0  0  0  0  0  0 
    7.1832    2.4060    0.0652 N   0  0  0  0  0  0  0  0  0  0  0  0 
    1.1733    3.9999   -0.9332 H   0  0  0  0  0  0  0  0  0  0  0  0 
    2.4212    4.4711   -2.1178 H   0  0  0  0  0  0  0  0  0  0  0  0 
    2.8730    3.5835   -0.6407 H   0  0  0  0  0  0  0  0  0  0  0  0 
   -0.0878    2.8104   -2.5867 H   0  0  0  0  0  0  0  0  0  0  0  0 
    0.6558    1.4759   -3.4874 H   0  0  0  0  0  0  0  0  0  0  0  0 
    1.0699    3.1626   -3.8932 H   0  0  0  0  0  0  0  0  0  0  0  0 
    6.9457    4.0910    1.2881 H   0  0  0  0  0  0  0  0  0  0  0  0 
    5.9617    2.6968    1.8080 H   0  0  0  0  0  0  0  0  0  0  0  0 
    5.5050    3.6297    0.3605 H   0  0  0  0  0  0  0  0  0  0  0  0 
    8.9337    2.7609    1.1596 H   0  0  0  0  0  0  0  0  0  0  0  0 
    8.9938    1.3459    0.0924 H   0  0  0  0  0  0  0  0  0  0  0  0 
    8.1042    1.2586    1.6357 H   0  0  0  0  0  0  0  0  0  0  0  0 
    3.7284    0.7811   -0.7950 H   0  0  0  0  0  0  0  0  0  0  0  0 
    5.7996    2.4747   -2.3077 H   0  0  0  0  0  0  0  0  0  0  0  0 
    2.8563    0.9578   -3.2099 H   0  0  0  0  0  0  0  0  0  0  0  0 
    3.6125    2.5525   -3.3399 H   0  0  0  0  0  0  0  0  0  0  0  0 
    7.1461    0.6682   -1.0603 H   0  0  0  0  0  0  0  0  0  0  0  0 
    5.9220    0.6759    0.2175 H   0  0  0  0  0  0  0  0  0  0  0  0 
  1 11  1  0  0  0  0 
  1 13  1  0  0  0  0 
  2 14  1  0  0  0  0 
  2  9  1  0  0  0  0 
  3 17  1  0  0  0  0 
  3 18  1  0  0  0  0 
  4 20  1  0  0  0  0 
  4 22  1  0  0  0  0 
  5  6  2  0  0  0  0 
  5 23  1  0  0  0  0 
  6  8  1  0  0  0  0 
  7  9  1  0  0  0  0 
  7  5  1  0  0  0  0 
  8 10  1  0  0  0  0 
  8 28  1  0  0  0  0 
  9  1  1  0  0  0  0 
 10  4  1  0  0  0  0 
 10  3  1  0  0  0  0 
 12  1  1  0  0  0  0 
 15  2  1  0  0  0  0 
 16  2  1  0  0  0  0 
 19  3  1  0  0  0  0 
 21  4  1  0  0  0  0 
 24  6  1  0  0  0  0 
 25  7  1  0  0  0  0 
 26  7  1  0  0  0  0 
 27  8  1  0  0  0  0 
M  END 
>  <HBA> 
2 
 
>  <HBD> 
0 
 
>  <TPSA> 
6.48 
 
>  <cid> 
66979 
 
>  <dipole> 
0.07 
 
>  <excitation_energy_1> 
5.118 
 
>  <excitation_energy_2> 
5.13 
 
>  <excitation_energy_3> 
5.385 
 
>  <excitation_energy_4> 
5.398 
 
>  <homo_energy> 
-5.695 
 
>  <homo_lumo_gap> 
6.204 
 
>  <logP> 
0.666 
 
>  <lumo_energy> 
0.509 
 
>  <melting_point> 
-12.83 
 
>  <molecular_refractivity> 
45.89 
 
>  <oscillator_strength_1> 
0.0 
 
>  <oscillator_strength_2> 
0.0032 
 
>  <oscillator_strength_3> 
0.0419 
 
>  <oscillator_strength_4> 
0.0 
 
>  <open_babel_can_smiles> 
CN(C/C=C/CN(C)C)C 
 
>  <mulliken_charges> 
28 
1   -0.303649 
2   -0.292209 
3   -0.303615 
4   -0.292191 
5   -0.099885 
6   -0.100554 
7   -0.161355 
8   -0.16119 
9   -0.366255 
10   -0.366081 
11   0.146406 
12   0.114661 
13   0.161342 
14   0.147937 
15   0.147028 
16   0.116208 
17   0.146334 
18   0.114629 
19   0.161375 
20   0.147908 
21   0.147012 
22   0.116182 
23   0.130712 
24   0.130767 
25   0.144254 
26   0.114953 
27   0.144352 
28   0.114924 
 
>  <lowdin_charges> 
28 
1   -0.3614 
2   -0.35656 
3   -0.362011 
4   -0.35875 
5   -0.170046 
6   -0.170115 
7   -0.19695 
8   -0.198343 
9   -0.184057 
10   -0.183958 
11   0.149196 
12   0.11989 
13   0.154897 
14   0.149737 
15   0.14818 
16   0.119782 
17   0.149593 
18   0.11952 
19   0.155312 
20   0.15058 
21   0.149988 
22   0.119689 
23   0.154487 
24   0.15447 
25   0.151046 
26   0.121863 
27   0.152063 
28   0.121897 
 
$$$$ 
 
