PCCDB-ID:  72602 
public computational chemistry database (PCCDB) project, http://pccdb.org 
 
 26 25  0  0  0  0  0  0  0  0999 V2000 
   -0.5217   -0.6176   -1.7654 C   0  0  0  0  0  0  0  0  0  0  0  0 
    1.3187   -1.5596   -3.2196 C   0  0  0  0  0  0  0  0  0  0  0  0 
    1.2808    0.9075   -2.6677 C   0  0  0  0  0  0  0  0  0  0  0  0 
    4.7946   -2.4601   -0.1873 C   0  0  0  0  0  0  0  0  0  0  0  0 
    4.8824   -4.4263   -1.6673 C   0  0  0  0  0  0  0  0  0  0  0  0 
    2.7519   -3.8105   -0.6753 C   0  0  0  0  0  0  0  0  0  0  0  0 
    0.9529   -0.5088   -2.1668 C   0  0  0  0  0  0  0  0  0  0  0  0 
    4.0481   -3.5086   -0.8884 N   0  0  0  0  0  0  0  0  0  0  0  0 
    2.0322   -5.2783   -1.0093 S   0  0  0  0  0  0  0  0  0  0  0  0 
    1.6468   -2.5978    0.1051 S   0  0  0  0  0  0  0  0  0  0  0  0 
    2.0583   -0.6785   -0.6438 S   0  0  0  0  0  0  0  0  0  0  0  0 
   -1.1547   -0.4771   -2.6514 H   0  0  0  0  0  0  0  0  0  0  0  0 
   -0.7905    0.1450   -1.0276 H   0  0  0  0  0  0  0  0  0  0  0  0 
   -0.7482   -1.6025   -1.3455 H   0  0  0  0  0  0  0  0  0  0  0  0 
    0.7144   -1.3995   -4.1222 H   0  0  0  0  0  0  0  0  0  0  0  0 
    1.1171   -2.5734   -2.8600 H   0  0  0  0  0  0  0  0  0  0  0  0 
    2.3748   -1.4922   -3.5005 H   0  0  0  0  0  0  0  0  0  0  0  0 
    0.6781    1.1213   -3.5591 H   0  0  0  0  0  0  0  0  0  0  0  0 
    2.3364    1.0047   -2.9440 H   0  0  0  0  0  0  0  0  0  0  0  0 
    1.0465    1.6679   -1.9147 H   0  0  0  0  0  0  0  0  0  0  0  0 
    5.7218   -2.8991    0.1978 H   0  0  0  0  0  0  0  0  0  0  0  0 
    4.2185   -2.0789    0.6538 H   0  0  0  0  0  0  0  0  0  0  0  0 
    5.0408   -1.6307   -0.8577 H   0  0  0  0  0  0  0  0  0  0  0  0 
    5.2689   -5.2379   -1.0385 H   0  0  0  0  0  0  0  0  0  0  0  0 
    5.7195   -3.8587   -2.0837 H   0  0  0  0  0  0  0  0  0  0  0  0 
    4.2950   -4.8680   -2.4726 H   0  0  0  0  0  0  0  0  0  0  0  0 
  1 14  1  0  0  0  0 
  1 13  1  0  0  0  0 
  2 16  1  0  0  0  0 
  2  7  1  0  0  0  0 
  3  7  1  0  0  0  0 
  3 20  1  0  0  0  0 
  4 21  1  0  0  0  0 
  4 22  1  0  0  0  0 
  5 24  1  0  0  0  0 
  5  8  1  0  0  0  0 
  6 10  1  0  0  0  0 
  7  1  1  0  0  0  0 
  7 11  1  0  0  0  0 
  8  6  1  0  0  0  0 
  8  4  1  0  0  0  0 
  9  6  2  0  0  0  0 
 11 10  1  0  0  0  0 
 12  1  1  0  0  0  0 
 15  2  1  0  0  0  0 
 17  2  1  0  0  0  0 
 18  3  1  0  0  0  0 
 19  3  1  0  0  0  0 
 23  4  1  0  0  0  0 
 25  5  1  0  0  0  0 
 26  5  1  0  0  0  0 
M  END 
>  <HBA> 
4 
 
>  <HBD> 
0 
 
>  <TPSA> 
85.93 
 
>  <cid> 
72602 
 
>  <dipole> 
4.51 
 
>  <excitation_energy_1> 
2.999 
 
>  <excitation_energy_2> 
4.09 
 
>  <excitation_energy_3> 
4.172 
 
>  <excitation_energy_4> 
4.541 
 
>  <homo_energy> 
-5.622 
 
>  <homo_lumo_gap> 
4.147 
 
>  <logP> 
3.013 
 
>  <lumo_energy> 
-1.475 
 
>  <melting_point> 
34.73 
 
>  <molecular_refractivity> 
61.67 
 
>  <oscillator_strength_1> 
0.002 
 
>  <oscillator_strength_2> 
0.0096 
 
>  <oscillator_strength_3> 
0.006 
 
>  <oscillator_strength_4> 
0.0423 
 
>  <open_babel_can_smiles> 
S=C(N(C)C)SSC(C)(C)C 
 
>  <mulliken_charges> 
26 
1   -0.438516 
2   -0.444197 
3   -0.451729 
4   -0.329495 
5   -0.318242 
6   -0.042633 
7   -0.066475 
8   -0.298479 
9   -0.198607 
10   0.060998 
11   -0.021183 
12   0.146459 
13   0.156796 
14   0.180012 
15   0.148503 
16   0.184804 
17   0.149404 
18   0.157929 
19   0.159223 
20   0.164276 
21   0.168309 
22   0.20066 
23   0.186368 
24   0.182745 
25   0.160215 
26   0.202853 
 
>  <lowdin_charges> 
26 
1   -0.446896 
2   -0.446142 
3   -0.446184 
4   -0.353844 
5   -0.352906 
6   -0.174248 
7   -0.064741 
8   -0.055832 
9   -0.179648 
10   0.082341 
11   -0.009423 
12   0.152514 
13   0.158524 
14   0.166878 
15   0.153574 
16   0.169356 
17   0.152473 
18   0.159942 
19   0.156759 
20   0.161354 
21   0.159803 
22   0.180856 
23   0.16684 
24   0.166563 
25   0.158526 
26   0.183558 
 
$$$$ 
 
