PCCDB-ID:  24347 
public computational chemistry database (PCCDB) project, http://pccdb.org 
 
  9  8  0  0  0  0  0  0  0  0999 V2000 
    2.1426    0.1306    0.1668 O   0  0  0  0  0  0  0  0  0  0  0  0 
    3.9296   -0.2388   -1.5888 O   0  0  0  0  0  0  0  0  0  0  0  0 
    4.0067    2.1877    0.8658 O   0  0  0  0  0  0  0  0  0  0  0  0 
    6.0947    1.3012    2.0151 O   0  0  0  0  0  0  0  0  0  0  0  0 
    4.5432   -0.2975    0.9058 O   0  0  0  0  0  0  0  0  0  0  0  0 
    3.4257   -0.7805   -0.3180 S   0  0  1  0  0  0  0  0  0  0  0  0 
    5.3708    1.1979    0.7468 S   0  0  1  0  0  0  0  0  0  0  0  0 
    2.3824    1.0808    0.0754 H   0  0  0  0  0  0  0  0  0  0  0  0 
    3.7729    2.2364    1.8174 H   0  0  0  0  0  0  0  0  0  0  0  0 
  3  9  1  0  0  0  0 
  6  2  2  6  0  0  0 
  6  1  1  0  0  0  0 
  6  5  1  0  0  0  0 
  7  3  1  0  0  0  0 
  7  5  1  0  0  0  0 
  7  4  2  1  0  0  0 
  8  1  1  0  0  0  0 
M  END 
>  <HBA> 
5 
 
>  <HBD> 
2 
 
>  <TPSA> 
122.25 
 
>  <cid> 
24347 
 
>  <dipole> 
1.78 
 
>  <excitation_energy_1> 
5.353 
 
>  <excitation_energy_2> 
6.035 
 
>  <excitation_energy_3> 
6.235 
 
>  <excitation_energy_4> 
6.285 
 
>  <homo_energy> 
-8.025 
 
>  <homo_lumo_gap> 
6.542 
 
>  <logP> 
1.008 
 
>  <lumo_energy> 
-1.483 
 
>  <melting_point> 
118.72 
 
>  <molecular_refractivity> 
22.9 
 
>  <oscillator_strength_1> 
0.0588 
 
>  <oscillator_strength_2> 
0.0233 
 
>  <oscillator_strength_3> 
0.0171 
 
>  <oscillator_strength_4> 
0.0021 
 
>  <open_babel_can_smiles> 
O[S@@](=O)O[S@](=O)O 
 
>  <mulliken_charges> 
9 
1   -0.654177 
2   -0.540675 
3   -0.681024 
4   -0.501799 
5   -0.645808 
6   1.082976 
7   1.074162 
8   0.437746 
9   0.4286 
 
>  <lowdin_charges> 
9 
1   -0.584015 
2   -0.576374 
3   -0.607018 
4   -0.546854 
5   -0.610574 
6   1.092229 
7   1.107555 
8   0.360512 
9   0.36454 
 
$$$$ 
 
