PCCDB-ID:  25402 
public computational chemistry database (PCCDB) project, http://pccdb.org 
 
 21 20  0  0  0  0  0  0  0  0999 V2000 
    1.5112   -2.0666    0.1691 C   0  0  0  0  0  0  0  0  0  0  0  0 
    7.6241   -2.2169   -1.1793 C   0  0  0  0  0  0  0  0  0  0  0  0 
    5.7198   -0.1855    0.2754 C   0  0  0  0  0  0  0  0  0  0  0  0 
    3.0135   -1.9105    0.4255 C   0  0  0  0  0  0  0  0  0  0  0  0 
    6.1230   -2.1639   -1.2422 C   0  0  0  0  0  0  0  0  0  0  0  0 
    3.7855   -1.4489   -0.8270 C   0  0  0  0  0  0  0  0  0  0  0  0 
    5.2838   -1.3147   -0.6284 C   0  0  0  0  0  0  0  0  0  0  0  0 
    0.9860   -2.4083    1.0684 H   0  0  0  0  0  0  0  0  0  0  0  0 
    1.3180   -2.7967   -0.6267 H   0  0  0  0  0  0  0  0  0  0  0  0 
    1.0600   -1.1152   -0.1389 H   0  0  0  0  0  0  0  0  0  0  0  0 
    7.9639   -3.1908   -0.8005 H   0  0  0  0  0  0  0  0  0  0  0  0 
    8.0584   -1.4444   -0.5392 H   0  0  0  0  0  0  0  0  0  0  0  0 
    8.0613   -2.1043   -2.1811 H   0  0  0  0  0  0  0  0  0  0  0  0 
    6.8054   -0.0970    0.3575 H   0  0  0  0  0  0  0  0  0  0  0  0 
    5.3215   -0.3090    1.2911 H   0  0  0  0  0  0  0  0  0  0  0  0 
    5.3331    0.7745   -0.0947 H   0  0  0  0  0  0  0  0  0  0  0  0 
    3.4338   -2.8653    0.7690 H   0  0  0  0  0  0  0  0  0  0  0  0 
    3.1673   -1.1952    1.2440 H   0  0  0  0  0  0  0  0  0  0  0  0 
    5.6746   -2.9287   -1.8792 H   0  0  0  0  0  0  0  0  0  0  0  0 
    3.3724   -0.4801   -1.1510 H   0  0  0  0  0  0  0  0  0  0  0  0 
    3.5876   -2.1577   -1.6416 H   0  0  0  0  0  0  0  0  0  0  0  0 
  1  4  1  0  0  0  0 
  1  8  1  0  0  0  0 
  2 11  1  0  0  0  0 
  2 12  1  0  0  0  0 
  3 14  1  0  0  0  0 
  3 15  1  0  0  0  0 
  4 17  1  0  0  0  0 
  4 18  1  0  0  0  0 
  5  2  1  0  0  0  0 
  5  7  2  0  0  0  0 
  6  7  1  0  0  0  0 
  6  4  1  0  0  0  0 
  7  3  1  0  0  0  0 
  9  1  1  0  0  0  0 
 10  1  1  0  0  0  0 
 13  2  1  0  0  0  0 
 16  3  1  0  0  0  0 
 19  5  1  0  0  0  0 
 20  6  1  0  0  0  0 
 21  6  1  0  0  0  0 
M  END 
>  <HBA> 
0 
 
>  <HBD> 
0 
 
>  <TPSA> 
0.0 
 
>  <cid> 
25402 
 
>  <dipole> 
0.19 
 
>  <excitation_energy_1> 
5.701 
 
>  <excitation_energy_2> 
6.145 
 
>  <excitation_energy_3> 
6.206 
 
>  <excitation_energy_4> 
6.341 
 
>  <homo_energy> 
-6.12 
 
>  <homo_lumo_gap> 
7.116 
 
>  <logP> 
2.753 
 
>  <lumo_energy> 
0.996 
 
>  <melting_point> 
-14.02 
 
>  <molecular_refractivity> 
35.29 
 
>  <oscillator_strength_1> 
0.0053 
 
>  <oscillator_strength_2> 
0.0216 
 
>  <oscillator_strength_3> 
0.002 
 
>  <oscillator_strength_4> 
0.0695 
 
>  <open_babel_can_smiles> 
CCC/C(=C/C)/C 
 
>  <mulliken_charges> 
21 
1   -0.441159 
2   -0.486921 
3   -0.520761 
4   -0.247372 
5   -0.16339 
6   -0.319678 
7   0.196954 
8   0.142333 
9   0.141823 
10   0.141224 
11   0.152714 
12   0.150758 
13   0.152497 
14   0.152027 
15   0.155687 
16   0.149811 
17   0.136497 
18   0.133186 
19   0.11159 
20   0.128766 
21   0.133416 
 
>  <lowdin_charges> 
21 
1   -0.445842 
2   -0.443575 
3   -0.443145 
4   -0.273375 
5   -0.189449 
6   -0.27179 
7   -0.014414 
8   0.150147 
9   0.146907 
10   0.146238 
11   0.155412 
12   0.153687 
13   0.154718 
14   0.153122 
15   0.154584 
16   0.153872 
17   0.142285 
18   0.140204 
19   0.145505 
20   0.140253 
21   0.144657 
 
$$$$ 
 
