PCCDB-ID:  10817 
public computational chemistry database (PCCDB) project, http://pccdb.org 
 
 22 22  0  0  1  0  0  0  0  0999 V2000 
    0.7882   -0.1265    0.0239 C   0  0  0  0  0  0  0  0  0  0  0  0 
    6.9833    0.0141   -2.0850 C   0  0  0  0  0  0  0  0  0  0  0  0 
    3.0372   -1.2772   -0.2035 C   0  0  0  0  0  0  0  0  0  0  0  0 
    2.9905    1.1204   -0.1400 C   0  0  0  0  0  0  0  0  0  0  0  0 
    4.4248   -1.2447   -0.3409 C   0  0  0  0  0  0  0  0  0  0  0  0 
    4.3766    1.1573   -0.2835 C   0  0  0  0  0  0  0  0  0  0  0  0 
    2.2938   -0.0949   -0.1031 C   0  0  0  0  0  0  0  0  0  0  0  0 
    6.6150   -0.0052   -0.5942 C   0  0  2  0  0  0  0  0  0  0  0  0 
    5.1126   -0.0282   -0.3879 C   0  0  0  0  0  0  0  0  0  0  0  0 
    7.1382    1.1466    0.0708 O   0  0  0  0  0  0  0  0  0  0  0  0 
    0.4413   -1.0746    0.4483 H   0  0  0  0  0  0  0  0  0  0  0  0 
    0.3016   -0.0099   -0.9540 H   0  0  0  0  0  0  0  0  0  0  0  0 
    0.4222    0.6837    0.6644 H   0  0  0  0  0  0  0  0  0  0  0  0 
    6.5877   -0.8674   -2.6008 H   0  0  0  0  0  0  0  0  0  0  0  0 
    8.0743    0.0178   -2.2162 H   0  0  0  0  0  0  0  0  0  0  0  0 
    6.5724    0.9096   -2.5632 H   0  0  0  0  0  0  0  0  0  0  0  0 
    2.5255   -2.2365   -0.1625 H   0  0  0  0  0  0  0  0  0  0  0  0 
    2.4391    2.0542   -0.0495 H   0  0  0  0  0  0  0  0  0  0  0  0 
    4.9790   -2.1795   -0.4023 H   0  0  0  0  0  0  0  0  0  0  0  0 
    4.9012    2.1071   -0.2937 H   0  0  0  0  0  0  0  0  0  0  0  0 
    7.0379   -0.9187   -0.1434 H   0  0  0  0  0  0  0  0  0  0  0  0 
    8.0725    1.2235   -0.1767 H   0  0  0  0  0  0  0  0  0  0  0  0 
  1 11  1  0  0  0  0 
  1 13  1  0  0  0  0 
  2  8  1  0  0  0  0 
  3 17  1  0  0  0  0 
  3  7  2  0  0  0  0 
  4  7  1  0  0  0  0 
  4 18  1  0  0  0  0 
  5  3  1  0  0  0  0 
  6  4  2  0  0  0  0 
  7  1  1  0  0  0  0 
  8  9  1  0  0  0  0 
  8 21  1  1  0  0  0 
  8 10  1  0  0  0  0 
  9  5  2  0  0  0  0 
  9  6  1  0  0  0  0 
 12  1  1  0  0  0  0 
 14  2  1  0  0  0  0 
 15  2  1  0  0  0  0 
 16  2  1  0  0  0  0 
 19  5  1  0  0  0  0 
 20  6  1  0  0  0  0 
 22 10  1  0  0  0  0 
M  END 
>  <HBA> 
1 
 
>  <HBD> 
1 
 
>  <TPSA> 
20.23 
 
>  <cid> 
10817 
 
>  <dipole> 
1.46 
 
>  <excitation_energy_1> 
5.19 
 
>  <excitation_energy_2> 
5.635 
 
>  <excitation_energy_3> 
5.737 
 
>  <excitation_energy_4> 
6.027 
 
>  <homo_energy> 
-6.158 
 
>  <homo_lumo_gap> 
6.324 
 
>  <logP> 
2.048 
 
>  <lumo_energy> 
0.166 
 
>  <melting_point> 
29.94 
 
>  <molecular_refractivity> 
42.34 
 
>  <oscillator_strength_1> 
0.0022 
 
>  <oscillator_strength_2> 
0.0321 
 
>  <oscillator_strength_3> 
0.0645 
 
>  <oscillator_strength_4> 
0.0011 
 
>  <open_babel_can_smiles> 
Cc1ccc(cc1)[C@H](O)C 
 
>  <mulliken_charges> 
22 
1   -0.529581 
2   -0.459285 
3   -0.182892 
4   -0.182663 
5   -0.181236 
6   -0.167018 
7   0.180004 
8   0.079258 
9   0.14449 
10   -0.628111 
11   0.154313 
12   0.163126 
13   0.156998 
14   0.152516 
15   0.131072 
16   0.160638 
17   0.118288 
18   0.119291 
19   0.117688 
20   0.145176 
21   0.118291 
22   0.389638 
 
>  <lowdin_charges> 
22 
1   -0.443264 
2   -0.458068 
3   -0.168556 
4   -0.166427 
5   -0.167108 
6   -0.155233 
7   -0.000673 
8   0.005547 
9   -0.01432 
10   -0.460222 
11   0.156567 
12   0.160089 
13   0.158883 
14   0.15882 
15   0.140359 
16   0.158622 
17   0.152607 
18   0.153177 
19   0.152127 
20   0.166666 
21   0.129442 
22   0.340964 
 
$$$$ 
 
