PCCDB-ID:  34939 
public computational chemistry database (PCCDB) project, http://pccdb.org 
 
 28 28  0  0  0  0  0  0  0  0999 V2000 
    1.1457   -0.1068    0.1251 C   0  0  0  0  0  0  0  0  0  0  0  0 
    8.5569    1.5398    1.9084 C   0  0  0  0  0  0  0  0  0  0  0  0 
    2.6721   -0.0670    0.0712 C   0  0  0  0  0  0  0  0  0  0  0  0 
    7.3098    0.9834    1.2244 C   0  0  0  0  0  0  0  0  0  0  0  0 
    6.6208   -2.4360   -3.7294 C   0  0  0  0  0  0  0  0  0  0  0  0 
    6.1665   -1.6764   -2.5789 C   0  0  0  0  0  0  0  0  0  0  0  0 
    4.4148   -0.8989   -1.2838 C   0  0  0  0  0  0  0  0  0  0  0  0 
    6.7580   -0.3241   -0.6512 C   0  0  0  0  0  0  0  0  0  0  0  0 
    8.9924   -2.6733   -4.2822 N   0  0  0  0  0  0  0  0  0  0  0  0 
    3.1564   -0.8227   -1.0715 N   0  0  0  0  0  0  0  0  0  0  0  0 
    7.6819    0.2089    0.0485 N   0  0  0  0  0  0  0  0  0  0  0  0 
    7.8828   -2.5649   -4.0260 N   0  0  0  0  0  0  0  0  0  0  0  0 
    4.8869   -1.6187   -2.3735 N   0  0  0  0  0  0  0  0  0  0  0  0 
    7.1100   -1.0648   -1.7820 N   0  0  0  0  0  0  0  0  0  0  0  0 
    5.3890   -0.2808   -0.4553 N   0  0  0  0  0  0  0  0  0  0  0  0 
    0.7673    0.4575    0.9854 H   0  0  0  0  0  0  0  0  0  0  0  0 
    0.7961   -1.1411    0.2037 H   0  0  0  0  0  0  0  0  0  0  0  0 
    0.7222    0.3222   -0.7886 H   0  0  0  0  0  0  0  0  0  0  0  0 
    8.2889    2.1245    2.7956 H   0  0  0  0  0  0  0  0  0  0  0  0 
    9.1133    2.1851    1.2209 H   0  0  0  0  0  0  0  0  0  0  0  0 
    9.2196    0.7243    2.2159 H   0  0  0  0  0  0  0  0  0  0  0  0 
    3.0746   -0.4735    1.0180 H   0  0  0  0  0  0  0  0  0  0  0  0 
    3.0022    0.9877    0.0222 H   0  0  0  0  0  0  0  0  0  0  0  0 
    6.6446    1.8221    0.9514 H   0  0  0  0  0  0  0  0  0  0  0  0 
    6.7489    0.3633    1.9463 H   0  0  0  0  0  0  0  0  0  0  0  0 
    5.9025   -2.9207   -4.3755 H   0  0  0  0  0  0  0  0  0  0  0  0 
    8.1049   -1.1220   -1.9542 H   0  0  0  0  0  0  0  0  0  0  0  0 
    5.0634    0.2370    0.3472 H   0  0  0  0  0  0  0  0  0  0  0  0 
  1 17  1  0  0  0  0 
  1 16  1  0  0  0  0 
  2 21  1  0  0  0  0 
  2 19  1  0  0  0  0 
  3  1  1  0  0  0  0 
  3 22  1  0  0  0  0 
  4  2  1  0  0  0  0 
  4 25  1  0  0  0  0 
  5  6  2  0  0  0  0 
  6 13  1  0  0  0  0 
  6 14  1  0  0  0  0 
  7 10  1  0  0  0  0 
  7 15  1  0  0  0  0 
  8 15  1  0  0  0  0 
  8 11  2  0  0  0  0 
  9 12  1  0  0  0  0 
 10  3  1  0  0  0  0 
 11  4  1  0  0  0  0 
 12  5  1  0  0  0  0 
 13  7  2  0  0  0  0 
 14  8  1  0  0  0  0 
 15 28  1  0  0  0  0 
 18  1  1  0  0  0  0 
 20  2  1  0  0  0  0 
 23  3  1  0  0  0  0 
 24  4  1  0  0  0  0 
 26  5  1  0  0  0  0 
 27 14  1  0  0  0  0 
M  RAD  3   9   3  10   2  12   2 
M  END 
>  <HBA> 
5 
 
>  <HBD> 
2 
 
>  <TPSA> 
100.12 
 
>  <cid> 
34939 
 
>  <dipole> 
1.83 
 
>  <excitation_energy_1> 
2.554 
 
>  <excitation_energy_2> 
3.438 
 
>  <excitation_energy_3> 
3.696 
 
>  <excitation_energy_4> 
3.822 
 
>  <homo_energy> 
-6.03 
 
>  <homo_lumo_gap> 
3.687 
 
>  <logP> 
0.611 
 
>  <lumo_energy> 
-2.343 
 
>  <melting_point> 
172.72 
 
>  <molecular_refractivity> 
56.67 
 
>  <oscillator_strength_1> 
0.0 
 
>  <oscillator_strength_2> 
0.0 
 
>  <oscillator_strength_3> 
0.0 
 
>  <oscillator_strength_4> 
0.0002 
 
>  <open_babel_can_smiles> 
CC[N]c1n/c(=C/[N][N])/[nH]/c(=N/CC)/[nH]1 
 
>  <mulliken_charges> 
28 
1   -0.431755 
2   -0.434709 
3   -0.159653 
4   -0.153763 
5   -0.09509 
6   0.585696 
7   0.660416 
8   0.769545 
9   -0.200473 
10   -0.457616 
11   -0.506555 
12   0.118 
13   -0.540804 
14   -0.731911 
15   -0.751414 
16   0.130329 
17   0.156671 
18   0.156507 
19   0.136424 
20   0.154512 
21   0.154566 
22   0.125557 
23   0.125581 
24   0.130382 
25   0.130687 
26   0.226619 
27   0.347747 
28   0.354503 
 
>  <lowdin_charges> 
28 
1   -0.443074 
2   -0.445127 
3   -0.206393 
4   -0.203456 
5   -0.245514 
6   0.119168 
7   0.117885 
8   0.139069 
9   -0.04213 
10   -0.218134 
11   -0.269871 
12   0.155186 
13   -0.200799 
14   -0.235778 
15   -0.273225 
16   0.145162 
17   0.155363 
18   0.156657 
19   0.148256 
20   0.156334 
21   0.15586 
22   0.127594 
23   0.126107 
24   0.130563 
25   0.131593 
26   0.218483 
27   0.301129 
28   0.299092 
 
$$$$ 
 
