PCCDB-ID:  15655 
public computational chemistry database (PCCDB) project, http://pccdb.org 
 
 12 12  0  0  0  0  0  0  0  0999 V2000 
   -0.1231    0.8951    0.0467 C   0  0  0  0  0  0  0  0  0  0  0  0 
    0.7501   -0.3196   -0.0109 C   0  0  0  0  0  0  0  0  0  0  0  0 
   -0.7612   -0.4809   -0.0563 C   0  0  0  0  0  0  0  0  0  0  0  0 
   -1.4680   -0.9324   -1.2961 C   0  0  0  0  0  0  0  0  0  0  0  0 
   -2.4437   -1.6408   -1.2730 O   0  0  0  0  0  0  0  0  0  0  0  0 
   -0.9685   -0.5132   -2.4965 O   0  0  0  0  0  0  0  0  0  0  0  0 
   -0.1772    1.5527   -0.8180 H   0  0  0  0  0  0  0  0  0  0  0  0 
   -0.2290    1.4166    0.9930 H   0  0  0  0  0  0  0  0  0  0  0  0 
    1.2521   -0.6442    0.8953 H   0  0  0  0  0  0  0  0  0  0  0  0 
    1.3158   -0.5252   -0.9168 H   0  0  0  0  0  0  0  0  0  0  0  0 
   -1.2427   -0.8694    0.8341 H   0  0  0  0  0  0  0  0  0  0  0  0 
   -0.1881    0.0508   -2.3748 H   0  0  0  0  0  0  0  0  0  0  0  0 
  1  8  1  0  0  0  0 
  2  1  1  0  0  0  0 
  2  9  1  0  0  0  0 
  3  2  1  0  0  0  0 
  3  1  1  0  0  0  0 
  3 11  1  0  0  0  0 
  4  5  2  0  0  0  0 
  4  3  1  0  0  0  0 
  6 12  1  0  0  0  0 
  6  4  1  0  0  0  0 
  7  1  1  0  0  0  0 
 10  2  1  0  0  0  0 
M  END 
>  <HBA> 
2 
 
>  <HBD> 
1 
 
>  <TPSA> 
37.3 
 
>  <cid> 
15655 
 
>  <dipole> 
4.76 
 
>  <excitation_energy_1> 
5.618 
 
>  <excitation_energy_2> 
6.457 
 
>  <excitation_energy_3> 
7.076 
 
>  <excitation_energy_4> 
7.343 
 
>  <homo_energy> 
-7.225 
 
>  <homo_lumo_gap> 
7.448 
 
>  <logP> 
0.481 
 
>  <lumo_energy> 
0.223 
 
>  <melting_point> 
74.5 
 
>  <molecular_refractivity> 
21.0 
 
>  <oscillator_strength_1> 
0.0007 
 
>  <oscillator_strength_2> 
0.0099 
 
>  <oscillator_strength_3> 
0.0032 
 
>  <oscillator_strength_4> 
0.0011 
 
>  <open_babel_can_smiles> 
OC(=O)C1CC1 
 
>  <mulliken_charges> 
12 
1   -0.321503 
2   -0.321352 
3   -0.201618 
4   0.611198 
5   -0.45172 
6   -0.579631 
7   0.160672 
8   0.178802 
9   0.17881 
10   0.161095 
11   0.178267 
12   0.40698 
 
>  <lowdin_charges> 
12 
1   -0.306239 
2   -0.305819 
3   -0.187594 
4   0.196292 
5   -0.239483 
6   -0.363341 
7   0.159858 
8   0.174171 
9   0.174578 
10   0.159939 
11   0.181948 
12   0.35569 
 
$$$$ 
 
