PCCDB-ID:  20610 
public computational chemistry database (PCCDB) project, http://pccdb.org 
 
 19 18  0  0  0  0  0  0  0  0999 V2000 
    3.2610   -1.4468    0.8049 C   0  0  0  0  0  0  0  0  0  0  0  0 
    0.9983   -0.8989   -0.1471 C   0  0  0  0  0  0  0  0  0  0  0  0 
    5.2044    2.0695   -2.0470 C   0  0  0  0  0  0  0  0  0  0  0  0 
    6.2199    1.0406   -2.2878 C   0  0  0  0  0  0  0  0  0  0  0  0 
    4.7889    2.1700   -0.5713 C   0  0  0  0  0  0  0  0  0  0  0  0 
    2.4501   -0.6153    0.1376 C   0  0  0  0  0  0  0  0  0  0  0  0 
    2.9512    0.6815   -0.4004 C   0  0  0  0  0  0  0  0  0  0  0  0 
    7.0279    0.2282   -2.4717 N   0  0  0  0  0  0  0  0  0  0  0  0 
    2.2734    1.4470   -1.0599 O   0  0  0  0  0  0  0  0  0  0  0  0 
    4.2496    0.9364   -0.0809 O   0  0  0  0  0  0  0  0  0  0  0  0 
    2.8949   -2.3959    1.1869 H   0  0  0  0  0  0  0  0  0  0  0  0 
    4.3042   -1.2103    0.9797 H   0  0  0  0  0  0  0  0  0  0  0  0 
    0.6963   -1.8540    0.2911 H   0  0  0  0  0  0  0  0  0  0  0  0 
    0.8104   -0.9313   -1.2262 H   0  0  0  0  0  0  0  0  0  0  0  0 
    0.3569   -0.1070    0.2553 H   0  0  0  0  0  0  0  0  0  0  0  0 
    4.3202    1.8602   -2.6578 H   0  0  0  0  0  0  0  0  0  0  0  0 
    5.5997    3.0410   -2.3698 H   0  0  0  0  0  0  0  0  0  0  0  0 
    4.0475    2.9656   -0.4653 H   0  0  0  0  0  0  0  0  0  0  0  0 
    5.6517    2.3744    0.0651 H   0  0  0  0  0  0  0  0  0  0  0  0 
  1 12  1  0  0  0  0 
  1 11  1  0  0  0  0 
  2  6  1  0  0  0  0 
  2 15  1  0  0  0  0 
  2 13  1  0  0  0  0 
  3  5  1  0  0  0  0 
  4  3  1  0  0  0  0 
  5 18  1  0  0  0  0 
  5 10  1  0  0  0  0 
  5 19  1  0  0  0  0 
  6  1  2  0  0  0  0 
  7 10  1  0  0  0  0 
  7  6  1  0  0  0  0 
  8  4  3  0  0  0  0 
  9  7  2  0  0  0  0 
 14  2  1  0  0  0  0 
 16  3  1  0  0  0  0 
 17  3  1  0  0  0  0 
M  END 
>  <HBA> 
3 
 
>  <HBD> 
0 
 
>  <TPSA> 
50.09 
 
>  <cid> 
20610 
 
>  <dipole> 
2.81 
 
>  <excitation_energy_1> 
4.877 
 
>  <excitation_energy_2> 
5.778 
 
>  <excitation_energy_3> 
6.446 
 
>  <excitation_energy_4> 
6.742 
 
>  <homo_energy> 
-7.535 
 
>  <homo_lumo_gap> 
6.15 
 
>  <logP> 
1.019 
 
>  <lumo_energy> 
-1.385 
 
>  <melting_point> 
1.94 
 
>  <molecular_refractivity> 
36.32 
 
>  <oscillator_strength_1> 
0.0002 
 
>  <oscillator_strength_2> 
0.2237 
 
>  <oscillator_strength_3> 
0.0856 
 
>  <oscillator_strength_4> 
0.0004 
 
>  <open_babel_can_smiles> 
CC(=C)C(=O)OCCC#N 
 
>  <mulliken_charges> 
19 
1   -0.362921 
2   -0.500788 
3   -0.373399 
4   0.358231 
5   -0.044054 
6   0.124175 
7   0.597226 
8   -0.461512 
9   -0.487081 
10   -0.468345 
11   0.154314 
12   0.181564 
13   0.151618 
14   0.175278 
15   0.172985 
16   0.226004 
17   0.198544 
18   0.182579 
19   0.175581 
 
>  <lowdin_charges> 
19 
1   -0.288381 
2   -0.433821 
3   -0.288504 
4   -0.017063 
5   -0.122261 
6   -0.030551 
7   0.202079 
8   -0.121861 
9   -0.269754 
10   -0.189675 
11   0.166294 
12   0.178266 
13   0.15801 
14   0.168204 
15   0.169597 
16   0.197649 
17   0.188543 
18   0.167135 
19   0.166095 
 
$$$$ 
 
