PCCDB-ID:  7620 
public computational chemistry database (PCCDB) project, http://pccdb.org 
 
 30 29  0  0  0  0  0  0  0  0999 V2000 
    6.4110    0.4941    0.1598 C   0  0  0  0  0  0  0  0  0  0  0  0 
    7.1179   -0.0453   -1.0906 C   0  0  0  0  0  0  0  0  0  0  0  0 
    6.6546   -1.4428   -1.5368 C   0  0  0  0  0  0  0  0  0  0  0  0 
    7.0755   -2.5699   -0.5862 C   0  0  0  0  0  0  0  0  0  0  0  0 
    5.2104   -4.1613   -0.6913 C   0  0  0  0  0  0  0  0  0  0  0  0 
    7.5148   -4.9754   -0.6002 C   0  0  0  0  0  0  0  0  0  0  0  0 
    4.5650   -5.0485   -1.7605 C   0  0  0  0  0  0  0  0  0  0  0  0 
    8.7235   -5.1392   -1.5293 C   0  0  0  0  0  0  0  0  0  0  0  0 
    6.6177   -3.8976   -1.0352 N   0  0  0  0  0  0  0  0  0  0  0  0 
    4.7391   -4.4779   -3.0426 O   0  0  0  0  0  0  0  0  0  0  0  0 
    9.6201   -6.1401   -1.0647 O   0  0  0  0  0  0  0  0  0  0  0  0 
    6.7479    1.5107    0.3922 H   0  0  0  0  0  0  0  0  0  0  0  0 
    6.6054   -0.1247    1.0430 H   0  0  0  0  0  0  0  0  0  0  0  0 
    5.3243    0.5302    0.0128 H   0  0  0  0  0  0  0  0  0  0  0  0 
    8.2041   -0.0590   -0.9201 H   0  0  0  0  0  0  0  0  0  0  0  0 
    6.9522    0.6542   -1.9201 H   0  0  0  0  0  0  0  0  0  0  0  0 
    7.0708   -1.6678   -2.5272 H   0  0  0  0  0  0  0  0  0  0  0  0 
    5.5629   -1.4392   -1.6586 H   0  0  0  0  0  0  0  0  0  0  0  0 
    6.7270   -2.3704    0.4422 H   0  0  0  0  0  0  0  0  0  0  0  0 
    8.1703   -2.5882   -0.5394 H   0  0  0  0  0  0  0  0  0  0  0  0 
    5.1032   -4.6072    0.3137 H   0  0  0  0  0  0  0  0  0  0  0  0 
    4.6788   -3.2050   -0.6828 H   0  0  0  0  0  0  0  0  0  0  0  0 
    7.8703   -4.8268    0.4344 H   0  0  0  0  0  0  0  0  0  0  0  0 
    6.9522   -5.9174   -0.6054 H   0  0  0  0  0  0  0  0  0  0  0  0 
    3.4884   -5.1358   -1.5759 H   0  0  0  0  0  0  0  0  0  0  0  0 
    4.9854   -6.0693   -1.7160 H   0  0  0  0  0  0  0  0  0  0  0  0 
    9.3107   -4.2164   -1.5687 H   0  0  0  0  0  0  0  0  0  0  0  0 
    8.3706   -5.3443   -2.5519 H   0  0  0  0  0  0  0  0  0  0  0  0 
    5.6563   -4.1435   -3.0250 H   0  0  0  0  0  0  0  0  0  0  0  0 
    9.1687   -6.9955   -1.1350 H   0  0  0  0  0  0  0  0  0  0  0  0 
  1 12  1  0  0  0  0 
  1 13  1  0  0  0  0 
  2 15  1  0  0  0  0 
  2  1  1  0  0  0  0 
  3  2  1  0  0  0  0 
  3  4  1  0  0  0  0 
  4 20  1  0  0  0  0 
  4 19  1  0  0  0  0 
  5 22  1  0  0  0  0 
  5 21  1  0  0  0  0 
  6 23  1  0  0  0  0 
  7 26  1  0  0  0  0 
  7 25  1  0  0  0  0 
  7  5  1  0  0  0  0 
  8 11  1  0  0  0  0 
  8  6  1  0  0  0  0 
  9  5  1  0  0  0  0 
  9  6  1  0  0  0  0 
  9  4  1  0  0  0  0 
 10 29  1  0  0  0  0 
 10  7  1  0  0  0  0 
 14  1  1  0  0  0  0 
 16  2  1  0  0  0  0 
 17  3  1  0  0  0  0 
 18  3  1  0  0  0  0 
 24  6  1  0  0  0  0 
 27  8  1  0  0  0  0 
 28  8  1  0  0  0  0 
 30 11  1  0  0  0  0 
M  END 
>  <HBA> 
3 
 
>  <HBD> 
2 
 
>  <TPSA> 
43.7 
 
>  <cid> 
7620 
 
>  <dipole> 
1.7 
 
>  <excitation_energy_1> 
5.5 
 
>  <excitation_energy_2> 
5.842 
 
>  <excitation_energy_3> 
5.894 
 
>  <excitation_energy_4> 
6.122 
 
>  <homo_energy> 
-6.158 
 
>  <homo_lumo_gap> 
7.946 
 
>  <logP> 
0.073 
 
>  <lumo_energy> 
1.788 
 
>  <melting_point> 
11.98 
 
>  <molecular_refractivity> 
45.79 
 
>  <oscillator_strength_1> 
0.0193 
 
>  <oscillator_strength_2> 
0.0636 
 
>  <oscillator_strength_3> 
0.0349 
 
>  <oscillator_strength_4> 
0.0399 
 
>  <open_babel_can_smiles> 
CCCCN(CCO)CCO 
 
>  <mulliken_charges> 
30 
1   -0.445391 
2   -0.255643 
3   -0.257386 
4   -0.132017 
5   -0.159494 
6   -0.151492 
7   -0.016658 
8   -0.033175 
9   -0.418759 
10   -0.627892 
11   -0.612041 
12   0.145939 
13   0.145729 
14   0.143531 
15   0.131402 
16   0.138481 
17   0.137001 
18   0.142444 
19   0.127495 
20   0.141496 
21   0.121824 
22   0.153138 
23   0.136622 
24   0.129977 
25   0.140166 
26   0.111774 
27   0.150297 
28   0.128915 
29   0.394211 
30   0.389506 
 
>  <lowdin_charges> 
30 
1   -0.445642 
2   -0.272044 
3   -0.28163 
4   -0.198645 
5   -0.220867 
6   -0.220976 
7   -0.136544 
8   -0.142254 
9   -0.192816 
10   -0.474992 
11   -0.463281 
12   0.150973 
13   0.146537 
14   0.145314 
15   0.137381 
16   0.14695 
17   0.144972 
18   0.14171 
19   0.12657 
20   0.143376 
21   0.129354 
22   0.152288 
23   0.132474 
24   0.140659 
25   0.144272 
26   0.11731 
27   0.14708 
28   0.129106 
29   0.331024 
30   0.342337 
 
$$$$ 
 
