PCCDB-ID:  7940 
public computational chemistry database (PCCDB) project, http://pccdb.org 
 
 14 14  0  0  0  0  0  0  0  0999 V2000 
    0.7269    1.2714   -0.2407 C   0  0  0  0  0  0  0  0  0  0  0  0 
    1.4290   -0.0169    0.1902 C   0  0  0  0  0  0  0  0  0  0  0  0 
   -0.7366    1.2147    0.1993 C   0  0  0  0  0  0  0  0  0  0  0  0 
    0.7104   -1.2630   -0.2861 C   0  0  0  0  0  0  0  0  0  0  0  0 
   -1.4432   -0.0384   -0.2766 C   0  0  0  0  0  0  0  0  0  0  0  0 
    1.2369   -2.3200   -0.4950 O   0  0  0  0  0  0  0  0  0  0  0  0 
   -2.6222   -0.1259   -0.4777 O   0  0  0  0  0  0  0  0  0  0  0  0 
   -0.6651   -1.1744   -0.4789 O   0  0  0  0  0  0  0  0  0  0  0  0 
    0.7871    1.3855   -1.3301 H   0  0  0  0  0  0  0  0  0  0  0  0 
    1.2237    2.1417    0.1991 H   0  0  0  0  0  0  0  0  0  0  0  0 
    1.4762   -0.0719    1.2877 H   0  0  0  0  0  0  0  0  0  0  0  0 
    2.4574   -0.0847   -0.1731 H   0  0  0  0  0  0  0  0  0  0  0  0 
   -1.3230    2.0651   -0.1573 H   0  0  0  0  0  0  0  0  0  0  0  0 
   -0.8009    1.2232    1.2973 H   0  0  0  0  0  0  0  0  0  0  0  0 
  1  2  1  0  0  0  0 
  1 10  1  0  0  0  0 
  1  3  1  0  0  0  0 
  2 11  1  0  0  0  0 
  3 14  1  0  0  0  0 
  4  2  1  0  0  0  0 
  5  3  1  0  0  0  0 
  6  4  2  0  0  0  0 
  7  5  2  0  0  0  0 
  8  4  1  0  0  0  0 
  8  5  1  0  0  0  0 
  9  1  1  0  0  0  0 
 12  2  1  0  0  0  0 
 13  3  1  0  0  0  0 
M  END 
>  <HBA> 
3 
 
>  <HBD> 
0 
 
>  <TPSA> 
43.37 
 
>  <cid> 
7940 
 
>  <dipole> 
5.25 
 
>  <excitation_energy_1> 
5.089 
 
>  <excitation_energy_2> 
5.534 
 
>  <excitation_energy_3> 
6.425 
 
>  <excitation_energy_4> 
6.861 
 
>  <homo_energy> 
-7.636 
 
>  <homo_lumo_gap> 
6.689 
 
>  <logP> 
0.24 
 
>  <lumo_energy> 
-0.947 
 
>  <melting_point> 
30.51 
 
>  <molecular_refractivity> 
25.52 
 
>  <oscillator_strength_1> 
0.0009 
 
>  <oscillator_strength_2> 
0.0004 
 
>  <oscillator_strength_3> 
0.0012 
 
>  <oscillator_strength_4> 
0.0012 
 
>  <open_babel_can_smiles> 
O=C1CCCC(=O)O1 
 
>  <mulliken_charges> 
14 
1   -0.289953 
2   -0.372152 
3   -0.371989 
4   0.603851 
5   0.603763 
6   -0.412073 
7   -0.412066 
8   -0.444931 
9   0.168557 
10   0.163937 
11   0.186836 
12   0.194729 
13   0.194707 
14   0.186783 
 
>  <lowdin_charges> 
14 
1   -0.275853 
2   -0.30549 
3   -0.306714 
4   0.211886 
5   0.205688 
6   -0.201408 
7   -0.19948 
8   -0.160613 
9   0.154958 
10   0.162665 
11   0.174347 
12   0.181938 
13   0.18376 
14   0.174317 
 
$$$$ 
 
