PCCDB-ID:  36576 
public computational chemistry database (PCCDB) project, http://pccdb.org 
 
 29 29  0  0  0  0  0  0  0  0999 V2000 
    1.9609    0.3570    0.2234 C   0  0  0  0  0  0  0  0  0  0  0  0 
    2.6685   -1.8431    1.3010 C   0  0  0  0  0  0  0  0  0  0  0  0 
    4.2279   -0.9392   -3.4230 C   0  0  0  0  0  0  0  0  0  0  0  0 
    8.0230   -2.3569    1.9897 C   0  0  0  0  0  0  0  0  0  0  0  0 
    7.9184   -1.0509    1.5069 C   0  0  0  0  0  0  0  0  0  0  0  0 
    7.4113   -3.4025    1.2947 C   0  0  0  0  0  0  0  0  0  0  0  0 
    7.2101   -0.7779    0.3348 C   0  0  0  0  0  0  0  0  0  0  0  0 
    6.6934   -3.1456    0.1262 C   0  0  0  0  0  0  0  0  0  0  0  0 
    3.0751   -0.6600    0.4350 C   0  0  0  0  0  0  0  0  0  0  0  0 
    6.5983   -1.8347   -0.3428 C   0  0  0  0  0  0  0  0  0  0  0  0 
    5.0020    0.8403   -1.3701 O   0  0  0  0  0  0  0  0  0  0  0  0 
    3.4667   -1.2142   -0.8660 O   0  0  0  0  0  0  0  0  0  0  0  0 
    5.9201   -1.6352   -1.5431 O   0  0  0  0  0  0  0  0  0  0  0  0 
    4.6822   -0.5700   -1.7145 P   0  0  1  0  0  0  0  0  0  0  0  0 
    1.6375    0.7685    1.1866 H   0  0  0  0  0  0  0  0  0  0  0  0 
    1.0972   -0.1148   -0.2584 H   0  0  0  0  0  0  0  0  0  0  0  0 
    2.3104    1.1833   -0.4023 H   0  0  0  0  0  0  0  0  0  0  0  0 
    2.3761   -1.4947    2.2978 H   0  0  0  0  0  0  0  0  0  0  0  0 
    3.4993   -2.5473    1.4090 H   0  0  0  0  0  0  0  0  0  0  0  0 
    1.8185   -2.3737    0.8576 H   0  0  0  0  0  0  0  0  0  0  0  0 
    3.3897   -0.2998   -3.7117 H   0  0  0  0  0  0  0  0  0  0  0  0 
    3.9398   -1.9881   -3.5256 H   0  0  0  0  0  0  0  0  0  0  0  0 
    5.0800   -0.7293   -4.0746 H   0  0  0  0  0  0  0  0  0  0  0  0 
    8.5807   -2.5598    2.8996 H   0  0  0  0  0  0  0  0  0  0  0  0 
    8.3958   -0.2334    2.0405 H   0  0  0  0  0  0  0  0  0  0  0  0 
    7.4900   -4.4225    1.6611 H   0  0  0  0  0  0  0  0  0  0  0  0 
    7.1220    0.2300   -0.0548 H   0  0  0  0  0  0  0  0  0  0  0  0 
    6.2118   -3.9425   -0.4314 H   0  0  0  0  0  0  0  0  0  0  0  0 
    3.9468   -0.1615    0.8698 H   0  0  0  0  0  0  0  0  0  0  0  0 
  1  9  1  0  0  0  0 
  1 15  1  0  0  0  0 
  2 19  1  0  0  0  0 
  2 18  1  0  0  0  0 
  3 14  1  0  0  0  0 
  4 24  1  0  0  0  0 
  5  4  1  0  0  0  0 
  5 25  1  0  0  0  0 
  6 26  1  0  0  0  0 
  6  4  2  0  0  0  0 
  7  5  2  0  0  0  0 
  8  6  1  0  0  0  0 
  9 29  1  0  0  0  0 
  9  2  1  0  0  0  0 
 10  8  2  0  0  0  0 
 10  7  1  0  0  0  0 
 12  9  1  0  0  0  0 
 13 10  1  0  0  0  0 
 14 13  1  0  0  0  0 
 14 11  2  1  0  0  0 
 14 12  1  0  0  0  0 
 16  1  1  0  0  0  0 
 17  1  1  0  0  0  0 
 20  2  1  0  0  0  0 
 21  3  1  0  0  0  0 
 22  3  1  0  0  0  0 
 23  3  1  0  0  0  0 
 27  7  1  0  0  0  0 
 28  8  1  0  0  0  0 
M  END 
>  <HBA> 
3 
 
>  <HBD> 
0 
 
>  <TPSA> 
45.34 
 
>  <cid> 
36576 
 
>  <dipole> 
2.3 
 
>  <excitation_energy_1> 
5.248 
 
>  <excitation_energy_2> 
5.877 
 
>  <excitation_energy_3> 
5.986 
 
>  <excitation_energy_4> 
6.247 
 
>  <homo_energy> 
-6.479 
 
>  <homo_lumo_gap> 
6.346 
 
>  <logP> 
3.313 
 
>  <lumo_energy> 
-0.133 
 
>  <melting_point> 
10.56 
 
>  <molecular_refractivity> 
57.1 
 
>  <oscillator_strength_1> 
0.0063 
 
>  <oscillator_strength_2> 
0.0422 
 
>  <oscillator_strength_3> 
0.0016 
 
>  <oscillator_strength_4> 
0.0042 
 
>  <open_babel_can_smiles> 
CC(O[P@@](=O)(Oc1ccccc1)C)C 
 
>  <mulliken_charges> 
29 
1   -0.454257 
2   -0.447984 
3   -0.654588 
4   -0.123965 
5   -0.144482 
6   -0.141752 
7   -0.164475 
8   -0.15934 
9   0.129303 
10   0.334783 
11   -0.581597 
12   -0.553206 
13   -0.602943 
14   1.137724 
15   0.145735 
16   0.149019 
17   0.180654 
18   0.147164 
19   0.163574 
20   0.153467 
21   0.195606 
22   0.199741 
23   0.20041 
24   0.130618 
25   0.137352 
26   0.134296 
27   0.183288 
28   0.142259 
29   0.163593 
 
>  <lowdin_charges> 
29 
1   -0.454728 
2   -0.449082 
3   -0.619889 
4   -0.165487 
5   -0.149633 
6   -0.149572 
7   -0.18028 
8   -0.178412 
9   0.023223 
10   0.101359 
11   -0.604305 
12   -0.411474 
13   -0.35779 
14   1.070363 
15   0.155878 
16   0.154031 
17   0.170321 
18   0.15572 
19   0.162216 
20   0.156286 
21   0.191545 
22   0.191559 
23   0.193904 
24   0.158922 
25   0.162535 
26   0.159314 
27   0.186649 
28   0.169599 
29   0.157228 
 
$$$$ 
 
