PCCDB-ID:  41078 
public computational chemistry database (PCCDB) project, http://pccdb.org 
 
 32 31  0  0  0  0  0  0  0  0999 V2000 
    1.2428   -1.1810    3.1185 C   0  0  0  0  0  0  0  0  0  0  0  0 
    9.5252    1.3774    4.4443 C   0  0  0  0  0  0  0  0  0  0  0  0 
    7.6904    4.8265    5.0096 C   0  0  0  0  0  0  0  0  0  0  0  0 
    2.5147   -0.4166    2.7358 C   0  0  0  0  0  0  0  0  0  0  0  0 
    3.7653   -1.3075    2.7294 C   0  0  0  0  0  0  0  0  0  0  0  0 
    5.0540   -0.6128    2.2589 C   0  0  0  0  0  0  0  0  0  0  0  0 
    5.5449    0.5177    3.1737 C   0  0  0  0  0  0  0  0  0  0  0  0 
    6.8939    1.1085    2.7112 C   0  0  0  0  0  0  0  0  0  0  0  0 
    7.3274    2.2798    3.5450 C   0  0  0  0  0  0  0  0  0  0  0  0 
    8.4407    2.4149    4.2932 C   0  0  0  0  0  0  0  0  0  0  0  0 
    8.6917    3.6779    5.0586 C   0  0  0  0  0  0  0  0  0  0  0  0 
    9.7115    3.7894    5.7263 O   0  0  0  0  0  0  0  0  0  0  0  0 
    0.3645   -0.5256    3.1150 H   0  0  0  0  0  0  0  0  0  0  0  0 
    1.3292   -1.6165    4.1217 H   0  0  0  0  0  0  0  0  0  0  0  0 
    1.0491   -2.0026    2.4179 H   0  0  0  0  0  0  0  0  0  0  0  0 
    9.2937    0.4493    3.9180 H   0  0  0  0  0  0  0  0  0  0  0  0 
    9.6885    1.1491    5.5028 H   0  0  0  0  0  0  0  0  0  0  0  0 
   10.4799    1.7618    4.0676 H   0  0  0  0  0  0  0  0  0  0  0  0 
    7.5628    5.2035    3.9884 H   0  0  0  0  0  0  0  0  0  0  0  0 
    8.0678    5.6314    5.6427 H   0  0  0  0  0  0  0  0  0  0  0  0 
    6.7039    4.5163    5.3724 H   0  0  0  0  0  0  0  0  0  0  0  0 
    2.6548    0.4202    3.4327 H   0  0  0  0  0  0  0  0  0  0  0  0 
    2.3869    0.0325    1.7402 H   0  0  0  0  0  0  0  0  0  0  0  0 
    3.5770   -2.1716    2.0762 H   0  0  0  0  0  0  0  0  0  0  0  0 
    3.9218   -1.7198    3.7374 H   0  0  0  0  0  0  0  0  0  0  0  0 
    4.9026   -0.2155    1.2440 H   0  0  0  0  0  0  0  0  0  0  0  0 
    5.8488   -1.3673    2.1732 H   0  0  0  0  0  0  0  0  0  0  0  0 
    5.6516    0.1421    4.2009 H   0  0  0  0  0  0  0  0  0  0  0  0 
    4.7974    1.3211    3.2159 H   0  0  0  0  0  0  0  0  0  0  0  0 
    6.7842    1.4470    1.6687 H   0  0  0  0  0  0  0  0  0  0  0  0 
    7.6536    0.3204    2.7002 H   0  0  0  0  0  0  0  0  0  0  0  0 
    6.6227    3.1107    3.5293 H   0  0  0  0  0  0  0  0  0  0  0  0 
  1 14  1  0  0  0  0 
  2 17  1  0  0  0  0 
  3 11  1  0  0  0  0 
  3 21  1  0  0  0  0 
  3 20  1  0  0  0  0 
  4  1  1  0  0  0  0 
  4 22  1  0  0  0  0 
  5  4  1  0  0  0  0 
  5 25  1  0  0  0  0 
  6  5  1  0  0  0  0 
  6  7  1  0  0  0  0 
  7 29  1  0  0  0  0 
  7 28  1  0  0  0  0 
  8  7  1  0  0  0  0 
  8  9  1  0  0  0  0 
  9 10  2  0  0  0  0 
 10  2  1  0  0  0  0 
 10 11  1  0  0  0  0 
 11 12  2  0  0  0  0 
 13  1  1  0  0  0  0 
 15  1  1  0  0  0  0 
 16  2  1  0  0  0  0 
 18  2  1  0  0  0  0 
 19  3  1  0  0  0  0 
 23  4  1  0  0  0  0 
 24  5  1  0  0  0  0 
 26  6  1  0  0  0  0 
 27  6  1  0  0  0  0 
 30  8  1  0  0  0  0 
 31  8  1  0  0  0  0 
 32  9  1  0  0  0  0 
M  END 
>  <HBA> 
1 
 
>  <HBD> 
0 
 
>  <TPSA> 
17.07 
 
>  <cid> 
41078 
 
>  <dipole> 
3.5 
 
>  <excitation_energy_1> 
3.765 
 
>  <excitation_energy_2> 
5.429 
 
>  <excitation_energy_3> 
6.046 
 
>  <excitation_energy_4> 
6.266 
 
>  <homo_energy> 
-6.493 
 
>  <homo_lumo_gap> 
5.339 
 
>  <logP> 
3.492 
 
>  <lumo_energy> 
-1.154 
 
>  <melting_point> 
4.72 
 
>  <molecular_refractivity> 
54.72 
 
>  <oscillator_strength_1> 
0.0004 
 
>  <oscillator_strength_2> 
0.4409 
 
>  <oscillator_strength_3> 
0.0111 
 
>  <oscillator_strength_4> 
0.0018 
 
>  <open_babel_can_smiles> 
CCCCCC/C=C(/C(=O)C)\C 
 
>  <mulliken_charges> 
32 
1   -0.441793 
2   -0.507839 
3   -0.54329 
4   -0.249068 
5   -0.248944 
6   -0.255975 
7   -0.258149 
8   -0.307134 
9   -0.15448 
10   0.094243 
11   0.417299 
12   -0.456512 
13   0.142503 
14   0.142661 
15   0.142233 
16   0.14369 
17   0.171862 
18   0.170225 
19   0.167304 
20   0.178887 
21   0.16658 
22   0.13471 
23   0.129368 
24   0.129548 
25   0.128572 
26   0.128641 
27   0.130701 
28   0.140143 
29   0.13689 
30   0.148267 
31   0.148253 
32   0.130605 
 
>  <lowdin_charges> 
32 
1   -0.444289 
2   -0.439881 
3   -0.477195 
4   -0.274824 
5   -0.275132 
6   -0.275241 
7   -0.273093 
8   -0.274452 
9   -0.141605 
10   -0.051219 
11   0.154433 
12   -0.247324 
13   0.149997 
14   0.146369 
15   0.147175 
16   0.15159 
17   0.167518 
18   0.16782 
19   0.166687 
20   0.174558 
21   0.16654 
22   0.140259 
23   0.137746 
24   0.142039 
25   0.137827 
26   0.137501 
27   0.14247 
28   0.142799 
29   0.141727 
30   0.152367 
31   0.150753 
32   0.156079 
 
$$$$ 
 
