PCCDB-ID:  25069 
public computational chemistry database (PCCDB) project, http://pccdb.org 
 
 33 33  0  0  0  0  0  0  0  0999 V2000 
    0.9171   -0.4658    0.1239 C   0  0  0  0  0  0  0  0  0  0  0  0 
    5.3429   -2.9403   -0.2869 C   0  0  0  0  0  0  0  0  0  0  0  0 
    6.0088    4.5585   -0.5076 C   0  0  0  0  0  0  0  0  0  0  0  0 
    2.1744   -3.6192    1.1609 C   0  0  0  0  0  0  0  0  0  0  0  0 
    3.1237    0.7482    0.1247 C   0  0  0  0  0  0  0  0  0  0  0  0 
    5.2318   -0.4320   -0.0643 C   0  0  0  0  0  0  0  0  0  0  0  0 
    2.0401   -3.4497   -1.2818 C   0  0  0  0  0  0  0  0  0  0  0  0 
    2.4274   -0.4622    0.0726 C   0  0  0  0  0  0  0  0  0  0  0  0 
    4.5612   -1.6572   -0.1278 C   0  0  0  0  0  0  0  0  0  0  0  0 
    4.5144    0.7511    0.0679 C   0  0  0  0  0  0  0  0  0  0  0  0 
    3.1557   -1.6617   -0.0519 C   0  0  0  0  0  0  0  0  0  0  0  0 
    5.0422    2.9464    0.9166 C   0  0  0  0  0  0  0  0  0  0  0  0 
    5.3939    4.1455    0.7424 N   0  0  0  0  0  0  0  0  0  0  0  0 
    2.4509   -2.9133   -0.0881 N   0  0  0  0  0  0  0  0  0  0  0  0 
    1.4395   -4.5021   -1.4180 O   0  0  0  0  0  0  0  0  0  0  0  0 
    4.4535    2.5319    2.0625 O   0  0  0  0  0  0  0  0  0  0  0  0 
    5.2503    1.9322    0.0312 O   0  0  0  0  0  0  0  0  0  0  0  0 
    0.5311    0.5521    0.2301 H   0  0  0  0  0  0  0  0  0  0  0  0 
    0.5398   -1.0557    0.9669 H   0  0  0  0  0  0  0  0  0  0  0  0 
    0.4820   -0.8979   -0.7844 H   0  0  0  0  0  0  0  0  0  0  0  0 
    6.4166   -2.7369   -0.3282 H   0  0  0  0  0  0  0  0  0  0  0  0 
    5.0650   -3.4718   -1.2041 H   0  0  0  0  0  0  0  0  0  0  0  0 
    5.1649   -3.6315    0.5448 H   0  0  0  0  0  0  0  0  0  0  0  0 
    5.5367    5.4882   -0.8447 H   0  0  0  0  0  0  0  0  0  0  0  0 
    5.9345    3.8138   -1.3096 H   0  0  0  0  0  0  0  0  0  0  0  0 
    7.0707    4.7789   -0.3398 H   0  0  0  0  0  0  0  0  0  0  0  0 
    1.6314   -4.5314    0.9094 H   0  0  0  0  0  0  0  0  0  0  0  0 
    1.5649   -3.0028    1.8311 H   0  0  0  0  0  0  0  0  0  0  0  0 
    3.1047   -3.8781    1.6788 H   0  0  0  0  0  0  0  0  0  0  0  0 
    2.5818    1.6837    0.2125 H   0  0  0  0  0  0  0  0  0  0  0  0 
    6.3150   -0.3886   -0.1192 H   0  0  0  0  0  0  0  0  0  0  0  0 
    2.3216   -2.8031   -2.1350 H   0  0  0  0  0  0  0  0  0  0  0  0 
    4.3824    3.3348    2.6086 H   0  0  0  0  0  0  0  0  0  0  0  0 
  1 18  1  0  0  0  0 
  1 19  1  0  0  0  0 
  2  9  1  0  0  0  0 
  2 23  1  0  0  0  0 
  3 26  1  0  0  0  0 
  3 13  1  0  0  0  0 
  4 29  1  0  0  0  0 
  4 28  1  0  0  0  0 
  5 30  1  0  0  0  0 
  6 10  1  0  0  0  0 
  7 14  1  0  0  0  0 
  8  1  1  0  0  0  0 
  8  5  1  0  0  0  0 
  9  6  2  0  0  0  0 
  9 11  1  0  0  0  0 
 10  5  2  0  0  0  0 
 11  8  2  0  0  0  0 
 12 16  1  0  0  0  0 
 13 12  2  0  0  0  0 
 14 11  1  0  0  0  0 
 14  4  1  0  0  0  0 
 15  7  2  0  0  0  0 
 16 33  1  0  0  0  0 
 17 10  1  0  0  0  0 
 17 12  1  0  0  0  0 
 20  1  1  0  0  0  0 
 21  2  1  0  0  0  0 
 22  2  1  0  0  0  0 
 24  3  1  0  0  0  0 
 25  3  1  0  0  0  0 
 27  4  1  0  0  0  0 
 31  6  1  0  0  0  0 
 32  7  1  0  0  0  0 
M  END 
>  <HBA> 
5 
 
>  <HBD> 
1 
 
>  <TPSA> 
58.64 
 
>  <cid> 
25069 
 
>  <dipole> 
2.8 
 
>  <excitation_energy_1> 
5.088 
 
>  <excitation_energy_2> 
5.254 
 
>  <excitation_energy_3> 
5.446 
 
>  <excitation_energy_4> 
5.534 
 
>  <homo_energy> 
-6.531 
 
>  <homo_lumo_gap> 
6.016 
 
>  <logP> 
2.641 
 
>  <lumo_energy> 
-0.514 
 
>  <melting_point> 
108.08 
 
>  <molecular_refractivity> 
65.86 
 
>  <oscillator_strength_1> 
0.0007 
 
>  <oscillator_strength_2> 
0.0001 
 
>  <oscillator_strength_3> 
0.1779 
 
>  <oscillator_strength_4> 
0.0025 
 
>  <open_babel_can_smiles> 
O=CN(c1c(C)cc(cc1C)O/C(=N\C)/O)C 
 
>  <mulliken_charges> 
33 
1   -0.530311 
2   -0.530643 
3   -0.325907 
4   -0.326412 
5   -0.234104 
6   -0.259093 
7   0.341721 
8   0.184542 
9   0.187636 
10   0.396322 
11   0.09446 
12   0.698263 
13   -0.47276 
14   -0.446951 
15   -0.466747 
16   -0.590164 
17   -0.537631 
18   0.160141 
19   0.169223 
20   0.175294 
21   0.161013 
22   0.175335 
23   0.169137 
24   0.156178 
25   0.154054 
26   0.15761 
27   0.201474 
28   0.159011 
29   0.159142 
30   0.141965 
31   0.14235 
32   0.111702 
33   0.42415 
 
>  <lowdin_charges> 
33 
1   -0.440613 
2   -0.439352 
3   -0.352956 
4   -0.355578 
5   -0.187012 
6   -0.183871 
7   0.039022 
8   0.008667 
9   0.008002 
10   0.113762 
11   0.003625 
12   0.186793 
13   -0.253817 
14   -0.090859 
15   -0.296183 
16   -0.361824 
17   -0.156435 
18   0.159455 
19   0.165269 
20   0.168455 
21   0.158995 
22   0.168478 
23   0.164924 
24   0.153309 
25   0.145112 
26   0.151902 
27   0.182384 
28   0.153239 
29   0.152089 
30   0.168316 
31   0.167542 
32   0.126088 
33   0.373073 
 
$$$$ 
 
