PCCDB-ID:  12819 
public computational chemistry database (PCCDB) project, http://pccdb.org 
 
 21 22  0  0  0  0  0  0  0  0999 V2000 
    2.4405    0.8483    0.0380 C   0  0  0  0  0  0  0  0  0  0  0  0 
    2.5009   -0.5598   -0.0476 C   0  0  0  0  0  0  0  0  0  0  0  0 
    1.2120    1.4654    0.0756 C   0  0  0  0  0  0  0  0  0  0  0  0 
    1.3521   -1.3222   -0.0846 C   0  0  0  0  0  0  0  0  0  0  0  0 
   -1.2509    1.3535    0.0621 C   0  0  0  0  0  0  0  0  0  0  0  0 
   -2.4154    0.6346    0.0124 C   0  0  0  0  0  0  0  0  0  0  0  0 
   -1.1541   -2.9574   -0.0585 C   0  0  0  0  0  0  0  0  0  0  0  0 
    0.0128    0.7081    0.0392 C   0  0  0  0  0  0  0  0  0  0  0  0 
    0.0605   -0.7245   -0.0308 C   0  0  0  0  0  0  0  0  0  0  0  0 
   -1.1719   -1.4787   -0.0604 C   0  0  0  0  0  0  0  0  0  0  0  0 
   -2.3880   -0.7826   -0.0519 C   0  0  0  0  0  0  0  0  0  0  0  0 
   -2.1129   -3.6916   -0.2170 O   0  0  0  0  0  0  0  0  0  0  0  0 
   -3.5552   -1.4670   -0.0859 O   0  0  0  0  0  0  0  0  0  0  0  0 
    3.3550    1.4336    0.0661 H   0  0  0  0  0  0  0  0  0  0  0  0 
    3.4678   -1.0541   -0.0905 H   0  0  0  0  0  0  0  0  0  0  0  0 
    1.1382    2.5490    0.1306 H   0  0  0  0  0  0  0  0  0  0  0  0 
    1.4547   -2.3968   -0.1695 H   0  0  0  0  0  0  0  0  0  0  0  0 
   -1.2843    2.4388    0.1166 H   0  0  0  0  0  0  0  0  0  0  0  0 
   -3.3785    1.1422    0.0261 H   0  0  0  0  0  0  0  0  0  0  0  0 
   -0.1590   -3.4082    0.1266 H   0  0  0  0  0  0  0  0  0  0  0  0 
   -4.2879   -0.8316   -0.0406 H   0  0  0  0  0  0  0  0  0  0  0  0 
  1 14  1  0  0  0  0 
  1  3  2  0  0  0  0 
  2  1  1  0  0  0  0 
  3 16  1  0  0  0  0 
  4  2  2  0  0  0  0 
  4  9  1  0  0  0  0 
  5 18  1  0  0  0  0 
  6 19  1  0  0  0  0 
  6  5  2  0  0  0  0 
  7 20  1  0  0  0  0 
  8  5  1  0  0  0  0 
  8  3  1  0  0  0  0 
  9  8  2  0  0  0  0 
 10  7  1  0  0  0  0 
 10 11  2  0  0  0  0 
 10  9  1  0  0  0  0 
 11  6  1  0  0  0  0 
 12  7  2  0  0  0  0 
 13 11  1  0  0  0  0 
 13 21  1  0  0  0  0 
 15  2  1  0  0  0  0 
 17  4  1  0  0  0  0 
M  END 
>  <HBA> 
2 
 
>  <HBD> 
1 
 
>  <TPSA> 
37.3 
 
>  <cid> 
12819 
 
>  <dipole> 
4.43 
 
>  <excitation_energy_1> 
3.328 
 
>  <excitation_energy_2> 
3.767 
 
>  <excitation_energy_3> 
4.161 
 
>  <excitation_energy_4> 
4.725 
 
>  <homo_energy> 
-5.959 
 
>  <homo_lumo_gap> 
4.185 
 
>  <logP> 
2.358 
 
>  <lumo_energy> 
-1.774 
 
>  <melting_point> 
123.4 
 
>  <molecular_refractivity> 
51.36 
 
>  <oscillator_strength_1> 
0.0004 
 
>  <oscillator_strength_2> 
0.0979 
 
>  <oscillator_strength_3> 
0.0544 
 
>  <oscillator_strength_4> 
0.0005 
 
>  <open_babel_can_smiles> 
O=Cc1c(O)ccc2c1cccc2 
 
>  <mulliken_charges> 
21 
1   -0.135558 
2   -0.131022 
3   -0.192831 
4   -0.200695 
5   -0.188384 
6   -0.19003 
7   0.196437 
8   0.138782 
9   0.062669 
10   -0.000502 
11   0.307765 
12   -0.403092 
13   -0.593128 
14   0.13412 
15   0.135707 
16   0.132908 
17   0.143706 
18   0.143737 
19   0.12926 
20   0.099643 
21   0.410508 
 
>  <lowdin_charges> 
21 
1   -0.164341 
2   -0.145892 
3   -0.147512 
4   -0.167205 
5   -0.121609 
6   -0.207341 
7   0.038643 
8   -0.014808 
9   0.015662 
10   -0.09719 
11   0.129995 
12   -0.226326 
13   -0.331019 
14   0.161401 
15   0.161298 
16   0.156833 
17   0.160367 
18   0.16264 
19   0.15828 
20   0.118617 
21   0.35951 
 
$$$$ 
 
