PCCDB-ID:  29110 
public computational chemistry database (PCCDB) project, http://pccdb.org 
 
 17 18  0  0  0  0  0  0  0  0999 V2000 
   -2.4285   -0.7468    0.1408 C   0  0  0  0  0  0  0  0  0  0  0  0 
   -1.1960   -1.3909    0.0946 C   0  0  0  0  0  0  0  0  0  0  0  0 
   -2.4557    0.6441    0.0326 C   0  0  0  0  0  0  0  0  0  0  0  0 
    2.4560    0.6826    0.5527 C   0  0  0  0  0  0  0  0  0  0  0  0 
   -0.0208   -0.6396   -0.0367 C   0  0  0  0  0  0  0  0  0  0  0  0 
    2.2979   -0.7250    0.0091 C   0  0  0  0  0  0  0  0  0  0  0  0 
   -0.1758    0.7669   -0.0858 C   0  0  0  0  0  0  0  0  0  0  0  0 
   -1.3505    1.3916   -0.0731 N   0  0  0  0  0  0  0  0  0  0  0  0 
    1.1903   -1.3182   -0.1980 N   0  0  0  0  0  0  0  0  0  0  0  0 
    3.4298   -1.4331   -0.2271 O   0  0  0  0  0  0  0  0  0  0  0  0 
    1.2585    1.8155   -0.2467 S   0  0  0  0  0  0  0  0  0  0  0  0 
   -3.3516   -1.3093    0.2414 H   0  0  0  0  0  0  0  0  0  0  0  0 
   -1.1112   -2.4727    0.1362 H   0  0  0  0  0  0  0  0  0  0  0  0 
   -3.3984    1.1872    0.0346 H   0  0  0  0  0  0  0  0  0  0  0  0 
    3.4492    1.0936    0.3479 H   0  0  0  0  0  0  0  0  0  0  0  0 
    2.3086    0.6781    1.6402 H   0  0  0  0  0  0  0  0  0  0  0  0 
    4.2064   -0.8909   -0.0217 H   0  0  0  0  0  0  0  0  0  0  0  0 
  1 12  1  0  0  0  0 
  2 13  1  0  0  0  0 
  2  1  1  0  0  0  0 
  3 14  1  0  0  0  0 
  3  1  2  0  0  0  0 
  4 16  1  0  0  0  0 
  5  2  2  0  0  0  0 
  6  4  1  0  0  0  0 
  7  8  2  0  0  0  0 
  7  5  1  0  0  0  0 
  8  3  1  0  0  0  0 
  9  5  1  0  0  0  0 
  9  6  2  0  0  0  0 
 10 17  1  0  0  0  0 
 10  6  1  0  0  0  0 
 11  7  1  0  0  0  0 
 11  4  1  0  0  0  0 
 15  4  1  0  0  0  0 
M  END 
>  <HBA> 
4 
 
>  <HBD> 
1 
 
>  <TPSA> 
67.29 
 
>  <cid> 
29110 
 
>  <dipole> 
2.78 
 
>  <excitation_energy_1> 
4.041 
 
>  <excitation_energy_2> 
4.398 
 
>  <excitation_energy_3> 
4.514 
 
>  <excitation_energy_4> 
4.871 
 
>  <homo_energy> 
-5.995 
 
>  <homo_lumo_gap> 
4.852 
 
>  <logP> 
1.264 
 
>  <lumo_energy> 
-1.143 
 
>  <melting_point> 
111.16 
 
>  <molecular_refractivity> 
46.28 
 
>  <oscillator_strength_1> 
0.0459 
 
>  <oscillator_strength_2> 
0.0075 
 
>  <oscillator_strength_3> 
0.032 
 
>  <oscillator_strength_4> 
0.0256 
 
>  <open_babel_can_smiles> 
OC1=Nc2c(SC1)nccc2 
 
>  <mulliken_charges> 
17 
1   -0.148725 
2   -0.122187 
3   0.033611 
4   -0.52931 
5   0.273492 
6   0.493319 
7   0.049448 
8   -0.446356 
9   -0.486035 
10   -0.560348 
11   0.197913 
12   0.139609 
13   0.15514 
14   0.145179 
15   0.177064 
16   0.215033 
17   0.413152 
 
>  <lowdin_charges> 
17 
1   -0.179387 
2   -0.12719 
3   -0.091339 
4   -0.411436 
5   0.015964 
6   0.137972 
7   -0.092528 
8   -0.14906 
9   -0.17532 
10   -0.339597 
11   0.200881 
12   0.166526 
13   0.171858 
14   0.159411 
15   0.173141 
16   0.178551 
17   0.361555 
 
$$$$ 
 
