PCCDB-ID:  27214 
public computational chemistry database (PCCDB) project, http://pccdb.org 
 
 31 31  0  0  1  0  0  0  0  0999 V2000 
    2.4141   -0.3831   -1.3477 C   0  0  0  0  0  0  0  0  0  0  0  0 
    3.4270   -1.3874    3.6574 C   0  0  0  0  0  0  0  0  0  0  0  0 
    3.5169    0.9809    2.8676 C   0  0  0  0  0  0  0  0  0  0  0  0 
    1.3155   -0.1820    3.0814 C   0  0  0  0  0  0  0  0  0  0  0  0 
    2.3058    0.0803    0.1119 C   0  0  0  0  0  0  0  0  0  0  0  0 
    4.4064   -1.1461    0.8102 C   0  0  0  0  0  0  0  0  0  0  0  0 
    2.2561   -2.2818    1.0189 C   0  0  0  0  0  0  0  0  0  0  0  0 
    4.2589   -3.4240    1.1674 C   0  0  0  0  0  0  0  0  0  0  0  0 
    2.7956   -0.3732    2.6795 C   0  0  0  0  0  0  0  0  0  0  0  0 
    2.9269   -0.9032    1.1567 C   0  0  2  0  0  0  0  0  0  0  0  0 
    5.0025   -2.2700    0.8179 N   0  0  0  0  0  0  0  0  0  0  0  0 
    2.8496   -3.4071    1.0253 N   0  0  0  0  0  0  0  0  0  0  0  0 
    5.1596   -0.0741    0.4675 O   0  0  0  0  0  0  0  0  0  0  0  0 
    0.9094   -2.3204    0.8793 O   0  0  0  0  0  0  0  0  0  0  0  0 
    4.8238   -4.4250    1.5457 O   0  0  0  0  0  0  0  0  0  0  0  0 
    1.9561    0.3573   -2.0116 H   0  0  0  0  0  0  0  0  0  0  0  0 
    1.9015   -1.3371   -1.5054 H   0  0  0  0  0  0  0  0  0  0  0  0 
    3.4579   -0.5069   -1.6525 H   0  0  0  0  0  0  0  0  0  0  0  0 
    3.3239   -1.0125    4.6816 H   0  0  0  0  0  0  0  0  0  0  0  0 
    4.4941   -1.5353    3.4667 H   0  0  0  0  0  0  0  0  0  0  0  0 
    2.9354   -2.3639    3.6130 H   0  0  0  0  0  0  0  0  0  0  0  0 
    3.3836    1.3127    3.9030 H   0  0  0  0  0  0  0  0  0  0  0  0 
    3.1067    1.7737    2.2309 H   0  0  0  0  0  0  0  0  0  0  0  0 
    4.5947    0.9051    2.6954 H   0  0  0  0  0  0  0  0  0  0  0  0 
    1.2728    0.1981    4.1077 H   0  0  0  0  0  0  0  0  0  0  0  0 
    0.7557   -1.1222    3.0682 H   0  0  0  0  0  0  0  0  0  0  0  0 
    0.7954    0.5526    2.4551 H   0  0  0  0  0  0  0  0  0  0  0  0 
    1.2531    0.2678    0.3555 H   0  0  0  0  0  0  0  0  0  0  0  0 
    2.7644    1.0712    0.2137 H   0  0  0  0  0  0  0  0  0  0  0  0 
    4.6279    0.7347    0.5014 H   0  0  0  0  0  0  0  0  0  0  0  0 
    0.5424   -1.4244    0.8978 H   0  0  0  0  0  0  0  0  0  0  0  0 
  1  5  1  0  0  0  0 
  2 19  1  0  0  0  0 
  3 22  1  0  0  0  0 
  4 25  1  0  0  0  0 
  5 29  1  0  0  0  0 
  5 28  1  0  0  0  0 
  6 11  2  0  0  0  0 
  6 10  1  0  0  0  0 
  7 12  2  0  0  0  0 
  7 10  1  0  0  0  0 
  8 15  2  0  0  0  0 
  9  3  1  0  0  0  0 
  9  4  1  0  0  0  0 
  9  2  1  0  0  0  0 
 10  5  1  6  0  0  0 
 10  9  1  0  0  0  0 
 11  8  2  0  0  0  0 
 12  8  1  0  0  0  0 
 13 30  1  0  0  0  0 
 13  6  1  0  0  0  0 
 14 31  1  0  0  0  0 
 14  7  1  0  0  0  0 
 16  1  1  0  0  0  0 
 17  1  1  0  0  0  0 
 18  1  1  0  0  0  0 
 20  2  1  0  0  0  0 
 21  2  1  0  0  0  0 
 23  3  1  0  0  0  0 
 24  3  1  0  0  0  0 
 26  4  1  0  0  0  0 
 27  4  1  0  0  0  0 
M  END 
>  <HBA> 
5 
 
>  <HBD> 
2 
 
>  <TPSA> 
75.27 
 
>  <cid> 
27214 
 
>  <dipole> 
9.85 
 
>  <excitation_energy_1> 
3.963 
 
>  <excitation_energy_2> 
4.248 
 
>  <excitation_energy_3> 
5.32 
 
>  <excitation_energy_4> 
5.44 
 
>  <homo_energy> 
-6.846 
 
>  <homo_lumo_gap> 
5.339 
 
>  <logP> 
1.452 
 
>  <lumo_energy> 
-1.508 
 
>  <melting_point> 
159.6 
 
>  <molecular_refractivity> 
61.97 
 
>  <oscillator_strength_1> 
0.0007 
 
>  <oscillator_strength_2> 
0.0004 
 
>  <oscillator_strength_3> 
0.0067 
 
>  <oscillator_strength_4> 
0.023 
 
>  <open_babel_can_smiles> 
CC[C@]1(C(=N[C](=[N]=C1O)=O)O)C(C)(C)C 
 
>  <mulliken_charges> 
31 
1   -0.465599 
2   -0.482473 
3   -0.494114 
4   -0.49398 
5   -0.333626 
6   0.517213 
7   0.516875 
8   0.614911 
9   0.105786 
10   -0.101887 
11   -0.456317 
12   -0.45618 
13   -0.577352 
14   -0.577304 
15   -0.433118 
16   0.160693 
17   0.180874 
18   0.18073 
19   0.151861 
20   0.179899 
21   0.179992 
22   0.164455 
23   0.14217 
24   0.170969 
25   0.164419 
26   0.170761 
27   0.142133 
28   0.142624 
29   0.142868 
30   0.421437 
31   0.421278 
 
>  <lowdin_charges> 
31 
1   -0.455775 
2   -0.451426 
3   -0.458461 
4   -0.460829 
5   -0.282678 
6   0.146472 
7   0.147549 
8   0.173949 
9   0.024044 
10   -0.063044 
11   -0.183151 
12   -0.183059 
13   -0.33174 
14   -0.332508 
15   -0.214617 
16   0.162922 
17   0.166287 
18   0.165224 
19   0.156423 
20   0.165387 
21   0.166614 
22   0.162649 
23   0.146469 
24   0.159005 
25   0.162665 
26   0.160716 
27   0.146766 
28   0.144557 
29   0.145369 
30   0.357995 
31   0.356227 
 
$$$$ 
 
