PCCDB-ID:  40229 
public computational chemistry database (PCCDB) project, http://pccdb.org 
 
 28 29  0  0  0  0  0  0  0  0999 V2000 
    1.0836   -0.5675   -0.1566 C   0  0  0  0  0  0  0  0  0  0  0  0 
    2.4570    4.9065    1.0290 C   0  0  0  0  0  0  0  0  0  0  0  0 
    5.5316   -3.3470   -0.0420 C   0  0  0  0  0  0  0  0  0  0  0  0 
    4.1968   -3.8139   -0.0797 C   0  0  0  0  0  0  0  0  0  0  0  0 
    5.8073   -1.9916   -0.0250 C   0  0  0  0  0  0  0  0  0  0  0  0 
    3.1197   -2.9420   -0.1017 C   0  0  0  0  0  0  0  0  0  0  0  0 
    4.6491    0.3409   -0.0464 C   0  0  0  0  0  0  0  0  0  0  0  0 
    3.7069    3.2081   -0.0456 C   0  0  0  0  0  0  0  0  0  0  0  0 
    4.7347   -1.0763   -0.0476 C   0  0  0  0  0  0  0  0  0  0  0  0 
    3.3936   -1.5634   -0.0863 C   0  0  0  0  0  0  0  0  0  0  0  0 
    3.3060    0.6834   -0.0815 C   0  0  0  0  0  0  0  0  0  0  0  0 
    2.7161    2.0277   -0.0999 C   0  0  0  0  0  0  0  0  0  0  0  0 
    2.5388   -0.4839   -0.1049 N   0  0  0  0  0  0  0  0  0  0  0  0 
    1.5085    2.2259   -0.1579 O   0  0  0  0  0  0  0  0  0  0  0  0 
    3.0911    4.4599   -0.1595 O   0  0  0  0  0  0  0  0  0  0  0  0 
    0.8030   -1.6212   -0.1689 H   0  0  0  0  0  0  0  0  0  0  0  0 
    0.6965   -0.0794   -1.0532 H   0  0  0  0  0  0  0  0  0  0  0  0 
    0.6345   -0.0850    0.7140 H   0  0  0  0  0  0  0  0  0  0  0  0 
    2.0811    5.9114    0.8209 H   0  0  0  0  0  0  0  0  0  0  0  0 
    3.1756    4.9631    1.8630 H   0  0  0  0  0  0  0  0  0  0  0  0 
    1.6196    4.2611    1.3160 H   0  0  0  0  0  0  0  0  0  0  0  0 
    6.3457   -4.0660   -0.0280 H   0  0  0  0  0  0  0  0  0  0  0  0 
    4.0092   -4.8842   -0.0916 H   0  0  0  0  0  0  0  0  0  0  0  0 
    6.8325   -1.6321    0.0055 H   0  0  0  0  0  0  0  0  0  0  0  0 
    2.1049   -3.3261   -0.1302 H   0  0  0  0  0  0  0  0  0  0  0  0 
    5.4771    1.0361   -0.0224 H   0  0  0  0  0  0  0  0  0  0  0  0 
    4.4012    3.1194   -0.8898 H   0  0  0  0  0  0  0  0  0  0  0  0 
    4.3061    3.1309    0.8788 H   0  0  0  0  0  0  0  0  0  0  0  0 
  1 13  1  0  0  0  0 
  1 18  1  0  0  0  0 
  2 21  1  0  0  0  0 
  2 20  1  0  0  0  0 
  3 22  1  0  0  0  0 
  3  5  1  0  0  0  0 
  4  3  2  0  0  0  0 
  5 24  1  0  0  0  0 
  6 10  2  0  0  0  0 
  6  4  1  0  0  0  0 
  7 26  1  0  0  0  0 
  8 28  1  0  0  0  0 
  9  7  1  0  0  0  0 
  9  5  2  0  0  0  0 
 10  9  1  0  0  0  0 
 11  7  2  0  0  0  0 
 12 11  1  0  0  0  0 
 12  8  1  0  0  0  0 
 13 10  1  0  0  0  0 
 13 11  1  0  0  0  0 
 14 12  2  0  0  0  0 
 15  8  1  0  0  0  0 
 15  2  1  0  0  0  0 
 16  1  1  0  0  0  0 
 17  1  1  0  0  0  0 
 19  2  1  0  0  0  0 
 23  4  1  0  0  0  0 
 25  6  1  0  0  0  0 
 27  8  1  0  0  0  0 
M  END 
>  <HBA> 
3 
 
>  <HBD> 
0 
 
>  <TPSA> 
31.23 
 
>  <cid> 
40229 
 
>  <dipole> 
2.23 
 
>  <excitation_energy_1> 
3.623 
 
>  <excitation_energy_2> 
3.681 
 
>  <excitation_energy_3> 
4.222 
 
>  <excitation_energy_4> 
4.883 
 
>  <homo_energy> 
-5.785 
 
>  <homo_lumo_gap> 
4.188 
 
>  <logP> 
2.007 
 
>  <lumo_energy> 
-1.597 
 
>  <melting_point> 
77.1 
 
>  <molecular_refractivity> 
59.29 
 
>  <oscillator_strength_1> 
0.0016 
 
>  <oscillator_strength_2> 
0.0564 
 
>  <oscillator_strength_3> 
0.4097 
 
>  <oscillator_strength_4> 
0.0011 
 
>  <open_babel_can_smiles> 
COCC(=O)c1cc2c(n1C)cccc2 
 
>  <mulliken_charges> 
28 
1   -0.306171 
2   -0.207499 
3   -0.14022 
4   -0.144713 
5   -0.196914 
6   -0.165697 
7   -0.272082 
8   -0.106204 
9   0.101789 
10   0.331242 
11   0.282117 
12   0.383911 
13   -0.58886 
14   -0.481223 
15   -0.444755 
16   0.15877 
17   0.188897 
18   0.184532 
19   0.159004 
20   0.123125 
21   0.161581 
22   0.127331 
23   0.129948 
24   0.131138 
25   0.135773 
26   0.14134 
27   0.171549 
28   0.142291 
 
>  <lowdin_charges> 
28 
1   -0.342182 
2   -0.283844 
3   -0.17474 
4   -0.150442 
5   -0.151773 
6   -0.186543 
7   -0.201164 
8   -0.164739 
9   -0.029718 
10   0.038266 
11   -0.019837 
12   0.130932 
13   -0.01309 
14   -0.247269 
15   -0.251631 
16   0.157754 
17   0.17213 
18   0.170275 
19   0.155689 
20   0.128765 
21   0.149329 
22   0.158892 
23   0.157269 
24   0.158725 
25   0.159243 
26   0.168723 
27   0.166728 
28   0.144252 
 
$$$$ 
 
