PCCDB-ID:  15522 
public computational chemistry database (PCCDB) project, http://pccdb.org 
 
 24 24  0  0  1  0  0  0  0  0999 V2000 
    0.6728    1.3770   -0.4870 C   0  0  0  0  0  0  0  0  0  0  0  0 
    1.5350    0.2069    0.0092 C   0  0  0  0  0  0  0  0  0  0  0  0 
   -0.7087    1.3958    0.1859 C   0  0  0  0  0  0  0  0  0  0  0  0 
    0.8083   -1.1355   -0.1612 C   0  0  0  0  0  0  0  0  0  0  0  0 
   -1.4229    0.0335    0.0227 C   0  0  1  0  0  0  0  0  0  0  0  0 
   -0.5686   -1.1474    0.5644 C   0  0  2  0  0  0  0  0  0  0  0  0 
   -2.8858    0.0717    0.5004 C   0  0  0  0  0  0  0  0  0  0  0  0 
   -0.3590   -1.1642    2.0801 C   0  0  0  0  0  0  0  0  0  0  0  0 
   -3.8043   -0.1287   -0.2614 O   0  0  0  0  0  0  0  0  0  0  0  0 
   -3.1095    0.3873    1.7884 O   0  0  0  0  0  0  0  0  0  0  0  0 
   -0.7143   -0.3015    2.8592 O   0  0  0  0  0  0  0  0  0  0  0  0 
    0.2995   -2.2363    2.5696 O   0  0  0  0  0  0  0  0  0  0  0  0 
    0.5453    1.2943   -1.5760 H   0  0  0  0  0  0  0  0  0  0  0  0 
    1.1882    2.3276   -0.3049 H   0  0  0  0  0  0  0  0  0  0  0  0 
    1.7878    0.3566    1.0683 H   0  0  0  0  0  0  0  0  0  0  0  0 
    2.4863    0.1774   -0.5353 H   0  0  0  0  0  0  0  0  0  0  0  0 
   -1.3338    2.1772   -0.2621 H   0  0  0  0  0  0  0  0  0  0  0  0 
   -0.5993    1.6431    1.2468 H   0  0  0  0  0  0  0  0  0  0  0  0 
    1.4462   -1.9590    0.1861 H   0  0  0  0  0  0  0  0  0  0  0  0 
    0.6221   -1.3230   -1.2262 H   0  0  0  0  0  0  0  0  0  0  0  0 
   -1.5219   -0.1602   -1.0508 H   0  0  0  0  0  0  0  0  0  0  0  0 
   -1.0834   -2.0872    0.3135 H   0  0  0  0  0  0  0  0  0  0  0  0 
   -2.2618    0.3949    2.2871 H   0  0  0  0  0  0  0  0  0  0  0  0 
    0.5165   -2.8587    1.8554 H   0  0  0  0  0  0  0  0  0  0  0  0 
  1 14  1  0  0  0  0 
  1  2  1  0  0  0  0 
  1  3  1  0  0  0  0 
  2 15  1  0  0  0  0 
  3 18  1  0  0  0  0 
  4  2  1  0  0  0  0 
  4 19  1  0  0  0  0 
  4  6  1  0  0  0  0 
  5 21  1  6  0  0  0 
  5  3  1  0  0  0  0 
  5  7  1  0  0  0  0 
  5  6  1  0  0  0  0 
  6 22  1  6  0  0  0 
  6  8  1  0  0  0  0 
  7 10  1  0  0  0  0 
  8 12  1  0  0  0  0 
  8 11  2  0  0  0  0 
  9  7  2  0  0  0  0 
 10 23  1  0  0  0  0 
 13  1  1  0  0  0  0 
 16  2  1  0  0  0  0 
 17  3  1  0  0  0  0 
 20  4  1  0  0  0  0 
 24 12  1  0  0  0  0 
M  END 
>  <HBA> 
4 
 
>  <HBD> 
2 
 
>  <TPSA> 
74.6 
 
>  <cid> 
15522 
 
>  <dipole> 
6.39 
 
>  <excitation_energy_1> 
5.38 
 
>  <excitation_energy_2> 
5.535 
 
>  <excitation_energy_3> 
5.62 
 
>  <excitation_energy_4> 
5.967 
 
>  <homo_energy> 
-6.917 
 
>  <homo_lumo_gap> 
6.166 
 
>  <logP> 
0.962 
 
>  <lumo_energy> 
-0.751 
 
>  <melting_point> 
149.0 
 
>  <molecular_refractivity> 
42.0 
 
>  <oscillator_strength_1> 
0.0016 
 
>  <oscillator_strength_2> 
0.0021 
 
>  <oscillator_strength_3> 
0.0032 
 
>  <oscillator_strength_4> 
0.0026 
 
>  <open_babel_can_smiles> 
OC(=O)[C@@H]1CCCC[C@@H]1C(=O)O 
 
>  <mulliken_charges> 
24 
1   -0.263367 
2   -0.270171 
3   -0.28234 
4   -0.282914 
5   -0.206384 
6   -0.241074 
7   0.584548 
8   0.635946 
9   -0.457724 
10   -0.593587 
11   -0.475374 
12   -0.552382 
13   0.138261 
14   0.147371 
15   0.152737 
16   0.147845 
17   0.159435 
18   0.161354 
19   0.128309 
20   0.159957 
21   0.164612 
22   0.173102 
23   0.449111 
24   0.422728 
 
>  <lowdin_charges> 
24 
1   -0.27421 
2   -0.279432 
3   -0.28367 
4   -0.275622 
5   -0.163575 
6   -0.174203 
7   0.186515 
8   0.211101 
9   -0.257726 
10   -0.36337 
11   -0.25627 
12   -0.331764 
13   0.140523 
14   0.152958 
15   0.147216 
16   0.153204 
17   0.1599 
18   0.152945 
19   0.140715 
20   0.153951 
21   0.166537 
22   0.167509 
23   0.36111 
24   0.365656 
 
$$$$ 
 
