PCCDB-ID:  62727 
public computational chemistry database (PCCDB) project, http://pccdb.org 
 
 34 34  0  0  1  0  0  0  0  0999 V2000 
   10.6339    6.4272    2.0990 C   0  0  0  0  0  0  0  0  0  0  0  0 
   10.4663    6.7764    0.6166 C   0  0  0  0  0  0  0  0  0  0  0  0 
    9.2872    6.0521   -0.0454 C   0  0  0  0  0  0  0  0  0  0  0  0 
    9.1114    6.4058   -1.5295 C   0  0  0  0  0  0  0  0  0  0  0  0 
    7.9239    5.7095   -2.2119 C   0  0  0  0  0  0  0  0  0  0  0  0 
    8.0465    4.2281   -2.4844 C   0  0  0  0  0  0  0  0  0  0  0  0 
    9.1528    3.4857   -2.3896 C   0  0  0  0  0  0  0  0  0  0  0  0 
    9.2800    2.0113   -2.6938 C   0  0  0  0  0  0  0  0  0  0  0  0 
    8.1781   -0.3010   -2.9900 C   0  0  0  0  0  0  0  0  0  0  0  0 
    6.9873   -0.7075   -3.8610 C   0  0  0  0  0  0  0  0  0  0  0  0 
    7.9879    1.2211   -2.8474 C   0  0  2  0  0  0  0  0  0  0  0  0 
    6.6902    0.5555   -4.6644 C   0  0  0  0  0  0  0  0  0  0  0  0 
    6.0301    0.6701   -5.6632 O   0  0  0  0  0  0  0  0  0  0  0  0 
    7.3006    1.6194   -4.0646 O   0  0  0  0  0  0  0  0  0  0  0  0 
   11.4825    6.9597    2.5436 H   0  0  0  0  0  0  0  0  0  0  0  0 
   10.8063    5.3524    2.2356 H   0  0  0  0  0  0  0  0  0  0  0  0 
    9.7371    6.6923    2.6725 H   0  0  0  0  0  0  0  0  0  0  0  0 
   11.3922    6.5313    0.0763 H   0  0  0  0  0  0  0  0  0  0  0  0 
   10.3321    7.8623    0.5092 H   0  0  0  0  0  0  0  0  0  0  0  0 
    8.3608    6.3038    0.4926 H   0  0  0  0  0  0  0  0  0  0  0  0 
    9.4159    4.9676    0.0671 H   0  0  0  0  0  0  0  0  0  0  0  0 
   10.0380    6.1855   -2.0780 H   0  0  0  0  0  0  0  0  0  0  0  0 
    8.9671    7.4915   -1.6158 H   0  0  0  0  0  0  0  0  0  0  0  0 
    7.7178    6.2074   -3.1724 H   0  0  0  0  0  0  0  0  0  0  0  0 
    7.0166    5.8784   -1.6114 H   0  0  0  0  0  0  0  0  0  0  0  0 
    7.1279    3.7590   -2.8349 H   0  0  0  0  0  0  0  0  0  0  0  0 
   10.0839    3.9534   -2.0708 H   0  0  0  0  0  0  0  0  0  0  0  0 
    9.8541    1.5314   -1.8860 H   0  0  0  0  0  0  0  0  0  0  0  0 
    9.8796    1.8666   -3.6059 H   0  0  0  0  0  0  0  0  0  0  0  0 
    9.1213   -0.5084   -3.5096 H   0  0  0  0  0  0  0  0  0  0  0  0 
    8.2115   -0.8016   -2.0183 H   0  0  0  0  0  0  0  0  0  0  0  0 
    6.0985   -0.9434   -3.2612 H   0  0  0  0  0  0  0  0  0  0  0  0 
    7.1651   -1.5514   -4.5310 H   0  0  0  0  0  0  0  0  0  0  0  0 
    7.3133    1.4463   -2.0103 H   0  0  0  0  0  0  0  0  0  0  0  0 
  1 16  1  0  0  0  0 
  1 15  1  0  0  0  0 
  1 17  1  0  0  0  0 
  2  1  1  0  0  0  0 
  3 21  1  0  0  0  0 
  3 20  1  0  0  0  0 
  3  2  1  0  0  0  0 
  4  3  1  0  0  0  0 
  5 25  1  0  0  0  0 
  5  4  1  0  0  0  0 
  6  7  2  0  0  0  0 
  6  5  1  0  0  0  0 
  7 27  1  0  0  0  0 
  8  7  1  0  0  0  0 
  8 28  1  0  0  0  0 
  9 11  1  0  0  0  0 
  9 31  1  0  0  0  0 
 10 32  1  0  0  0  0 
 10  9  1  0  0  0  0 
 11  8  1  0  0  0  0 
 11 34  1  1  0  0  0 
 12 14  1  0  0  0  0 
 12 10  1  0  0  0  0 
 13 12  2  0  0  0  0 
 14 11  1  0  0  0  0 
 18  2  1  0  0  0  0 
 19  2  1  0  0  0  0 
 22  4  1  0  0  0  0 
 23  4  1  0  0  0  0 
 24  5  1  0  0  0  0 
 26  6  1  0  0  0  0 
 29  8  1  0  0  0  0 
 30  9  1  0  0  0  0 
 33 10  1  0  0  0  0 
M  END 
>  <HBA> 
2 
 
>  <HBD> 
0 
 
>  <TPSA> 
26.3 
 
>  <cid> 
62727 
 
>  <dipole> 
4.15 
 
>  <excitation_energy_1> 
5.662 
 
>  <excitation_energy_2> 
5.955 
 
>  <excitation_energy_3> 
6.062 
 
>  <excitation_energy_4> 
6.197 
 
>  <homo_energy> 
-6.539 
 
>  <homo_lumo_gap> 
6.912 
 
>  <logP> 
3.219 
 
>  <lumo_energy> 
0.373 
 
>  <melting_point> 
14.26 
 
>  <molecular_refractivity> 
58.49 
 
>  <oscillator_strength_1> 
0.0006 
 
>  <oscillator_strength_2> 
0.0027 
 
>  <oscillator_strength_3> 
0.0002 
 
>  <oscillator_strength_4> 
0.0014 
 
>  <open_babel_can_smiles> 
CCCCC/C=C/C[C@@H]1CCC(=O)O1 
 
>  <mulliken_charges> 
34 
1   -0.441198 
2   -0.246532 
3   -0.245927 
4   -0.261458 
5   -0.304978 
6   -0.097509 
7   -0.118964 
8   -0.307641 
9   -0.308913 
10   -0.389456 
11   0.133676 
12   0.615481 
13   -0.454583 
14   -0.458232 
15   0.141537 
16   0.139523 
17   0.141522 
18   0.128243 
19   0.130267 
20   0.125479 
21   0.133823 
22   0.13366 
23   0.129985 
24   0.150858 
25   0.138492 
26   0.142741 
27   0.121294 
28   0.144537 
29   0.158711 
30   0.158108 
31   0.15586 
32   0.181864 
33   0.184805 
34   0.144921 
 
>  <lowdin_charges> 
34 
1   -0.444071 
2   -0.270092 
3   -0.276293 
4   -0.275149 
5   -0.273305 
6   -0.164743 
7   -0.187095 
8   -0.279249 
9   -0.290198 
10   -0.314631 
11   0.006456 
12   0.188232 
13   -0.235363 
14   -0.194329 
15   0.149922 
16   0.143636 
17   0.146739 
18   0.13779 
19   0.13655 
20   0.137195 
21   0.138984 
22   0.140242 
23   0.141386 
24   0.155609 
25   0.147815 
26   0.159402 
27   0.150459 
28   0.156241 
29   0.159613 
30   0.154569 
31   0.158373 
32   0.174376 
33   0.176956 
34   0.143973 
 
$$$$ 
 
