PCCDB-ID:  7264 
public computational chemistry database (PCCDB) project, http://pccdb.org 
 
 18 18  0  0  0  0  0  0  0  0999 V2000 
    1.0306   -0.0845    0.0527 C   0  0  0  0  0  0  0  0  0  0  0  0 
    3.2648    1.0941   -0.1550 C   0  0  0  0  0  0  0  0  0  0  0  0 
    4.6594    1.0645   -0.2715 C   0  0  0  0  0  0  0  0  0  0  0  0 
    3.2343   -1.3105   -0.1269 C   0  0  0  0  0  0  0  0  0  0  0  0 
    2.5367   -0.0943   -0.0812 C   0  0  0  0  0  0  0  0  0  0  0  0 
    4.6261   -1.3644   -0.2388 C   0  0  0  0  0  0  0  0  0  0  0  0 
    5.3359   -0.1469   -0.3139 C   0  0  0  0  0  0  0  0  0  0  0  0 
    5.3362   -2.5681   -0.2248 N   0  0  0  0  0  0  0  0  0  0  0  0 
    6.7050   -0.2566   -0.4420 O   0  0  0  0  0  0  0  0  0  0  0  0 
    0.6349    0.9348   -0.0011 H   0  0  0  0  0  0  0  0  0  0  0  0 
    0.7074   -0.5147    1.0095 H   0  0  0  0  0  0  0  0  0  0  0  0 
    0.5497   -0.6702   -0.7409 H   0  0  0  0  0  0  0  0  0  0  0  0 
    2.7505    2.0508   -0.1231 H   0  0  0  0  0  0  0  0  0  0  0  0 
    5.2224    1.9947   -0.3367 H   0  0  0  0  0  0  0  0  0  0  0  0 
    2.6829   -2.2477   -0.0654 H   0  0  0  0  0  0  0  0  0  0  0  0 
    4.8255   -3.3613   -0.5923 H   0  0  0  0  0  0  0  0  0  0  0  0 
    6.2646   -2.4960   -0.6228 H   0  0  0  0  0  0  0  0  0  0  0  0 
    7.0842    0.6329   -0.5050 H   0  0  0  0  0  0  0  0  0  0  0  0 
  1 11  1  0  0  0  0 
  2 13  1  0  0  0  0 
  2  5  2  0  0  0  0 
  3  2  1  0  0  0  0 
  4  5  1  0  0  0  0 
  4 15  1  0  0  0  0 
  5  1  1  0  0  0  0 
  6  8  1  0  0  0  0 
  6  4  2  0  0  0  0 
  7  3  2  0  0  0  0 
  7  6  1  0  0  0  0 
  9  7  1  0  0  0  0 
 10  1  1  0  0  0  0 
 12  1  1  0  0  0  0 
 14  3  1  0  0  0  0 
 16  8  1  0  0  0  0 
 17  8  1  0  0  0  0 
 18  9  1  0  0  0  0 
M  END 
>  <HBA> 
2 
 
>  <HBD> 
2 
 
>  <TPSA> 
46.25 
 
>  <cid> 
7264 
 
>  <dipole> 
1.34 
 
>  <excitation_energy_1> 
4.417 
 
>  <excitation_energy_2> 
4.571 
 
>  <excitation_energy_3> 
4.876 
 
>  <excitation_energy_4> 
5.124 
 
>  <homo_energy> 
-5.04 
 
>  <homo_lumo_gap> 
5.45 
 
>  <logP> 
1.864 
 
>  <lumo_energy> 
0.411 
 
>  <melting_point> 
98.28 
 
>  <molecular_refractivity> 
37.84 
 
>  <oscillator_strength_1> 
0.0082 
 
>  <oscillator_strength_2> 
0.0665 
 
>  <oscillator_strength_3> 
0.0041 
 
>  <oscillator_strength_4> 
0.0002 
 
>  <open_babel_can_smiles> 
Cc1ccc(c(c1)N)O 
 
>  <mulliken_charges> 
18 
1   -0.53055 
2   -0.202552 
3   -0.192434 
4   -0.241017 
5   0.179162 
6   0.287606 
7   0.306836 
8   -0.792928 
9   -0.670191 
10   0.150823 
11   0.158558 
12   0.154262 
13   0.113445 
14   0.111071 
15   0.107546 
16   0.315436 
17   0.336293 
18   0.408635 
 
>  <lowdin_charges> 
18 
1   -0.441376 
2   -0.189742 
3   -0.206953 
4   -0.204638 
5   -0.006384 
6   0.036012 
7   0.067155 
8   -0.489576 
9   -0.400544 
10   0.153833 
11   0.157477 
12   0.156709 
13   0.152212 
14   0.150788 
15   0.150072 
16   0.274611 
17   0.282197 
18   0.358145 
 
$$$$ 
 
