PCCDB-ID:  21625 
public computational chemistry database (PCCDB) project, http://pccdb.org 
 
 18 17  0  0  0  0  0  0  0  0999 V2000 
    1.5693    2.6915    0.9727 C   0  0  0  0  0  0  0  0  0  0  0  0 
    2.1419    1.4818    1.6954 C   0  0  0  0  0  0  0  0  0  0  0  0 
    4.8452    0.0184   -0.3954 C   0  0  0  0  0  0  0  0  0  0  0  0 
    6.3501    0.2527   -0.5077 C   0  0  0  0  0  0  0  0  0  0  0  0 
    4.1941    0.9692    0.5950 C   0  0  0  0  0  0  0  0  0  0  0  0 
    4.7515    1.9034    1.1315 O   0  0  0  0  0  0  0  0  0  0  0  0 
    2.9001    0.6377    0.7929 O   0  0  0  0  0  0  0  0  0  0  0  0 
    7.1599   -0.7763   -1.8004 S   0  0  0  0  0  0  0  0  0  0  0  0 
    0.9366    3.2681    1.6572 H   0  0  0  0  0  0  0  0  0  0  0  0 
    0.9585    2.3821    0.1183 H   0  0  0  0  0  0  0  0  0  0  0  0 
    2.3719    3.3439    0.6173 H   0  0  0  0  0  0  0  0  0  0  0  0 
    1.3513    0.8285    2.0728 H   0  0  0  0  0  0  0  0  0  0  0  0 
    2.7898    1.7832    2.5219 H   0  0  0  0  0  0  0  0  0  0  0  0 
    4.6205   -1.0103   -0.0890 H   0  0  0  0  0  0  0  0  0  0  0  0 
    4.3597    0.1518   -1.3700 H   0  0  0  0  0  0  0  0  0  0  0  0 
    6.8460    0.0952    0.4532 H   0  0  0  0  0  0  0  0  0  0  0  0 
    6.5512    1.2864   -0.7997 H   0  0  0  0  0  0  0  0  0  0  0  0 
    6.9172   -1.9765   -1.2284 H   0  0  0  0  0  0  0  0  0  0  0  0 
  1  9  1  0  0  0  0 
  1  2  1  0  0  0  0 
  2 12  1  0  0  0  0 
  2 13  1  0  0  0  0 
  3 14  1  0  0  0  0 
  3  5  1  0  0  0  0 
  4  3  1  0  0  0  0 
  4 16  1  0  0  0  0 
  5  7  1  0  0  0  0 
  5  6  2  0  0  0  0 
  7  2  1  0  0  0  0 
  8 18  1  0  0  0  0 
  8  4  1  0  0  0  0 
 10  1  1  0  0  0  0 
 11  1  1  0  0  0  0 
 15  3  1  0  0  0  0 
 17  4  1  0  0  0  0 
M  END 
>  <HBA> 
3 
 
>  <HBD> 
1 
 
>  <TPSA> 
65.1 
 
>  <cid> 
21625 
 
>  <dipole> 
2.69 
 
>  <excitation_energy_1> 
5.269 
 
>  <excitation_energy_2> 
5.644 
 
>  <excitation_energy_3> 
5.945 
 
>  <excitation_energy_4> 
6.036 
 
>  <homo_energy> 
-6.514 
 
>  <homo_lumo_gap> 
6.719 
 
>  <logP> 
0.869 
 
>  <lumo_energy> 
0.204 
 
>  <melting_point> 
6.8 
 
>  <molecular_refractivity> 
35.36 
 
>  <oscillator_strength_1> 
0.0141 
 
>  <oscillator_strength_2> 
0.0005 
 
>  <oscillator_strength_3> 
0.009 
 
>  <oscillator_strength_4> 
0.0242 
 
>  <open_babel_can_smiles> 
SCCC(=O)OCC 
 
>  <mulliken_charges> 
18 
1   -0.462243 
2   -0.045932 
3   -0.350099 
4   -0.411812 
5   0.62123 
6   -0.477259 
7   -0.4599 
8   -0.075558 
9   0.152472 
10   0.158583 
11   0.176111 
12   0.154522 
13   0.17163 
14   0.173609 
15   0.193527 
16   0.190803 
17   0.199115 
18   0.0912 
 
>  <lowdin_charges> 
18 
1   -0.45777 
2   -0.130408 
3   -0.30687 
4   -0.36573 
5   0.198724 
6   -0.268961 
7   -0.196025 
8   -0.079961 
9   0.161381 
10   0.157461 
11   0.166269 
12   0.154647 
13   0.160071 
14   0.168947 
15   0.179998 
16   0.168454 
17   0.178874 
18   0.1109 
 
$$$$ 
 
