PCCDB-ID:  33367 
public computational chemistry database (PCCDB) project, http://pccdb.org 
 
 32 32  0  0  0  0  0  0  0  0999 V2000 
    1.5419   -1.8390    0.2976 C   0  0  0  0  0  0  0  0  0  0  0  0 
    4.1384    0.9648   -2.5133 C   0  0  0  0  0  0  0  0  0  0  0  0 
    2.9073   -2.4036   -0.0525 C   0  0  0  0  0  0  0  0  0  0  0  0 
    6.9359   -2.9747   -1.2656 C   0  0  0  0  0  0  0  0  0  0  0  0 
    9.0769   -2.0944   -2.1271 C   0  0  0  0  0  0  0  0  0  0  0  0 
    5.6006   -2.8347   -0.8866 C   0  0  0  0  0  0  0  0  0  0  0  0 
    9.9233   -1.1893   -2.6651 C   0  0  0  0  0  0  0  0  0  0  0  0 
    7.0304   -0.6416   -1.8410 C   0  0  0  0  0  0  0  0  0  0  0  0 
    7.6818   -1.8893   -1.7465 C   0  0  0  0  0  0  0  0  0  0  0  0 
    4.9697   -1.5906   -0.9765 C   0  0  0  0  0  0  0  0  0  0  0  0 
    5.7050   -0.4833   -1.4709 C   0  0  0  0  0  0  0  0  0  0  0  0 
   11.3166   -1.4844   -2.9784 C   0  0  0  0  0  0  0  0  0  0  0  0 
   12.0975   -0.7969   -3.7387 N   0  0  0  0  0  0  0  0  0  0  0  0 
   11.8977   -2.6051   -2.4447 O   0  0  0  0  0  0  0  0  0  0  0  0 
   11.3948    0.2610   -4.3589 O   0  0  0  0  0  0  0  0  0  0  0  0 
    5.1494    0.7717   -1.5209 O   0  0  0  0  0  0  0  0  0  0  0  0 
    3.6826   -1.3409   -0.6125 O   0  0  0  0  0  0  0  0  0  0  0  0 
    1.6360   -1.0228    1.0203 H   0  0  0  0  0  0  0  0  0  0  0  0 
    0.9143   -2.6223    0.7357 H   0  0  0  0  0  0  0  0  0  0  0  0 
    1.0409   -1.4536   -0.5960 H   0  0  0  0  0  0  0  0  0  0  0  0 
    3.8415    2.0135   -2.4397 H   0  0  0  0  0  0  0  0  0  0  0  0 
    3.2697    0.3247   -2.3317 H   0  0  0  0  0  0  0  0  0  0  0  0 
    4.5365    0.7704   -3.5182 H   0  0  0  0  0  0  0  0  0  0  0  0 
    2.8197   -3.2229   -0.7800 H   0  0  0  0  0  0  0  0  0  0  0  0 
    3.4120   -2.7952    0.8414 H   0  0  0  0  0  0  0  0  0  0  0  0 
    7.4062   -3.9517   -1.1851 H   0  0  0  0  0  0  0  0  0  0  0  0 
    9.4409   -3.1110   -1.9751 H   0  0  0  0  0  0  0  0  0  0  0  0 
    5.0615   -3.6982   -0.5148 H   0  0  0  0  0  0  0  0  0  0  0  0 
    9.6003   -0.1833   -2.9081 H   0  0  0  0  0  0  0  0  0  0  0  0 
    7.5530    0.2397   -2.1982 H   0  0  0  0  0  0  0  0  0  0  0  0 
   11.5081   -2.7471   -1.5671 H   0  0  0  0  0  0  0  0  0  0  0  0 
   12.1090    0.7104   -4.8351 H   0  0  0  0  0  0  0  0  0  0  0  0 
  1 19  1  0  0  0  0 
  1 18  1  0  0  0  0 
  2 21  1  0  0  0  0 
  2 22  1  0  0  0  0 
  2 16  1  0  0  0  0 
  3  1  1  0  0  0  0 
  3 25  1  0  0  0  0 
  4 26  1  0  0  0  0 
  4  6  2  0  0  0  0 
  5 27  1  0  0  0  0 
  5  9  1  0  0  0  0 
  6 28  1  0  0  0  0 
  7  5  2  0  0  0  0 
  8  9  2  0  0  0  0 
  8 11  1  0  0  0  0 
  9  4  1  0  0  0  0 
 10  6  1  0  0  0  0 
 10 17  1  0  0  0  0 
 11 10  2  0  0  0  0 
 12  7  1  0  0  0  0 
 12 14  1  0  0  0  0 
 13 12  2  0  0  0  0 
 14 31  1  0  0  0  0 
 15 13  1  0  0  0  0 
 16 11  1  0  0  0  0 
 17  3  1  0  0  0  0 
 20  1  1  0  0  0  0 
 23  2  1  0  0  0  0 
 24  3  1  0  0  0  0 
 29  7  1  0  0  0  0 
 30  8  1  0  0  0  0 
 32 15  1  0  0  0  0 
M  END 
>  <HBA> 
5 
 
>  <HBD> 
2 
 
>  <TPSA> 
67.79 
 
>  <cid> 
33367 
 
>  <dipole> 
5.09 
 
>  <excitation_energy_1> 
3.839 
 
>  <excitation_energy_2> 
4.285 
 
>  <excitation_energy_3> 
4.495 
 
>  <excitation_energy_4> 
4.882 
 
>  <homo_energy> 
-5.478 
 
>  <homo_lumo_gap> 
4.038 
 
>  <logP> 
2.003 
 
>  <lumo_energy> 
-1.439 
 
>  <melting_point> 
140.2 
 
>  <molecular_refractivity> 
62.86 
 
>  <oscillator_strength_1> 
0.7609 
 
>  <oscillator_strength_2> 
0.0081 
 
>  <oscillator_strength_3> 
0.1004 
 
>  <oscillator_strength_4> 
0.0374 
 
>  <open_babel_can_smiles> 
CCOc1ccc(cc1OC)/C=C/C(=N\O)/O 
 
>  <mulliken_charges> 
32 
1   -0.458941 
2   -0.212437 
3   -0.033088 
4   -0.204642 
5   -0.205026 
6   -0.206945 
7   -0.159613 
8   -0.238 
9   0.179347 
10   0.358517 
11   0.317356 
12   0.487811 
13   -0.249049 
14   -0.603539 
15   -0.516942 
16   -0.520169 
17   -0.513517 
18   0.169599 
19   0.152352 
20   0.163364 
21   0.16113 
22   0.160028 
23   0.142093 
24   0.14464 
25   0.147055 
26   0.130346 
27   0.129341 
28   0.139991 
29   0.170109 
30   0.144476 
31   0.404749 
32   0.419605 
 
>  <lowdin_charges> 
32 
1   -0.449466 
2   -0.27316 
3   -0.12456 
4   -0.154955 
5   -0.143062 
6   -0.210898 
7   -0.19919 
8   -0.165813 
9   -0.018748 
10   0.087168 
11   0.073209 
12   0.094321 
13   -0.090906 
14   -0.374946 
15   -0.387894 
16   -0.222479 
17   -0.190593 
18   0.163632 
19   0.160577 
20   0.160243 
21   0.156197 
22   0.148527 
23   0.139189 
24   0.140739 
25   0.142713 
26   0.158187 
27   0.153012 
28   0.166384 
29   0.176799 
30   0.171517 
31   0.355969 
32   0.358289 
 
$$$$ 
 
