PCCDB-ID:  10953 
public computational chemistry database (PCCDB) project, http://pccdb.org 
 
 15 15  0  0  0  0  0  0  0  0999 V2000 
    0.7603    1.2674   -0.2333 C   0  0  0  0  0  0  0  0  0  0  0  0 
    1.4416   -0.0098    0.2595 C   0  0  0  0  0  0  0  0  0  0  0  0 
   -0.7249    1.2182    0.1442 C   0  0  0  0  0  0  0  0  0  0  0  0 
    0.7606   -1.2143   -0.3727 C   0  0  0  0  0  0  0  0  0  0  0  0 
   -1.4237   -0.1146   -0.1077 C   0  0  0  0  0  0  0  0  0  0  0  0 
   -2.6257   -0.2119   -0.1637 O   0  0  0  0  0  0  0  0  0  0  0  0 
   -0.6700   -1.2449   -0.1800 O   0  0  0  0  0  0  0  0  0  0  0  0 
    0.8699    1.3414   -1.3239 H   0  0  0  0  0  0  0  0  0  0  0  0 
    1.2288    2.1616    0.1926 H   0  0  0  0  0  0  0  0  0  0  0  0 
    1.3759   -0.0751    1.3538 H   0  0  0  0  0  0  0  0  0  0  0  0 
    2.5060   -0.0279   -0.0042 H   0  0  0  0  0  0  0  0  0  0  0  0 
   -1.3133    1.9875   -0.3636 H   0  0  0  0  0  0  0  0  0  0  0  0 
   -0.8385    1.4065    1.2214 H   0  0  0  0  0  0  0  0  0  0  0  0 
    1.1208   -2.1566    0.0489 H   0  0  0  0  0  0  0  0  0  0  0  0 
    0.9494   -1.2341   -1.4546 H   0  0  0  0  0  0  0  0  0  0  0  0 
  1  3  1  0  0  0  0 
  1  9  1  0  0  0  0 
  1  2  1  0  0  0  0 
  2 10  1  0  0  0  0 
  3 13  1  0  0  0  0 
  4  7  1  0  0  0  0 
  4 14  1  0  0  0  0 
  4  2  1  0  0  0  0 
  5  3  1  0  0  0  0 
  6  5  2  0  0  0  0 
  7  5  1  0  0  0  0 
  8  1  1  0  0  0  0 
 11  2  1  0  0  0  0 
 12  3  1  0  0  0  0 
 15  4  1  0  0  0  0 
M  END 
>  <HBA> 
2 
 
>  <HBD> 
0 
 
>  <TPSA> 
26.3 
 
>  <cid> 
10953 
 
>  <dipole> 
4.64 
 
>  <excitation_energy_1> 
5.466 
 
>  <excitation_energy_2> 
6.628 
 
>  <excitation_energy_3> 
7.031 
 
>  <excitation_energy_4> 
7.11 
 
>  <homo_energy> 
-7.026 
 
>  <homo_lumo_gap> 
7.339 
 
>  <logP> 
0.714 
 
>  <lumo_energy> 
0.313 
 
>  <melting_point> 
9.12 
 
>  <molecular_refractivity> 
25.32 
 
>  <oscillator_strength_1> 
0.0009 
 
>  <oscillator_strength_2> 
0.0004 
 
>  <oscillator_strength_3> 
0.037 
 
>  <oscillator_strength_4> 
0.0389 
 
>  <open_babel_can_smiles> 
O=C1CCCCO1 
 
>  <mulliken_charges> 
15 
1   -0.27455 
2   -0.294357 
3   -0.36603 
4   -0.034714 
5   0.592913 
6   -0.449451 
7   -0.447685 
8   0.147371 
9   0.149644 
10   0.152113 
11   0.150743 
12   0.181219 
13   0.17987 
14   0.16253 
15   0.150383 
 
>  <lowdin_charges> 
15 
1   -0.278368 
2   -0.28817 
3   -0.31104 
4   -0.122108 
5   0.188539 
6   -0.244132 
7   -0.196919 
8   0.144538 
9   0.153988 
10   0.147938 
11   0.156814 
12   0.176686 
13   0.171742 
14   0.158133 
15   0.142359 
 
$$$$ 
 
