PCCDB-ID:  8892 
public computational chemistry database (PCCDB) project, http://pccdb.org 
 
 20 19  0  0  0  0  0  0  0  0999 V2000 
    0.4885    0.1639   -0.0412 C   0  0  0  0  0  0  0  0  0  0  0  0 
    2.0052   -0.0112    0.0806 C   0  0  0  0  0  0  0  0  0  0  0  0 
    2.7533    1.3166    0.2578 C   0  0  0  0  0  0  0  0  0  0  0  0 
    4.2711    1.1427    0.3816 C   0  0  0  0  0  0  0  0  0  0  0  0 
    5.0086    2.4717    0.5574 C   0  0  0  0  0  0  0  0  0  0  0  0 
    6.5188    2.3094    0.6866 C   0  0  0  0  0  0  0  0  0  0  0  0 
    7.1031    1.2563    0.6767 O   0  0  0  0  0  0  0  0  0  0  0  0 
    7.2176    3.4734    0.8235 O   0  0  0  0  0  0  0  0  0  0  0  0 
   -0.0164   -0.8003   -0.1679 H   0  0  0  0  0  0  0  0  0  0  0  0 
    0.2290    0.7911   -0.9032 H   0  0  0  0  0  0  0  0  0  0  0  0 
    0.0713    0.6429    0.8534 H   0  0  0  0  0  0  0  0  0  0  0  0 
    2.3886   -0.5254   -0.8120 H   0  0  0  0  0  0  0  0  0  0  0  0 
    2.2320   -0.6693    0.9311 H   0  0  0  0  0  0  0  0  0  0  0  0 
    2.3677    1.8318    1.1508 H   0  0  0  0  0  0  0  0  0  0  0  0 
    2.5264    1.9754   -0.5944 H   0  0  0  0  0  0  0  0  0  0  0  0 
    4.6655    0.6326   -0.5058 H   0  0  0  0  0  0  0  0  0  0  0  0 
    4.5086    0.4915    1.2315 H   0  0  0  0  0  0  0  0  0  0  0  0 
    4.6428    3.0000    1.4513 H   0  0  0  0  0  0  0  0  0  0  0  0 
    4.8052    3.1421   -0.2917 H   0  0  0  0  0  0  0  0  0  0  0  0 
    6.6067    4.2288    0.8135 H   0  0  0  0  0  0  0  0  0  0  0  0 
  1  2  1  0  0  0  0 
  1 11  1  0  0  0  0 
  2  3  1  0  0  0  0 
  2 13  1  0  0  0  0 
  3  4  1  0  0  0  0 
  3 14  1  0  0  0  0 
  4  5  1  0  0  0  0 
  4 17  1  0  0  0  0 
  5  6  1  0  0  0  0 
  5 18  1  0  0  0  0 
  6  8  1  0  0  0  0 
  7  6  2  0  0  0  0 
  9  1  1  0  0  0  0 
 10  1  1  0  0  0  0 
 12  2  1  0  0  0  0 
 15  3  1  0  0  0  0 
 16  4  1  0  0  0  0 
 19  5  1  0  0  0  0 
 20  8  1  0  0  0  0 
M  END 
>  <HBA> 
2 
 
>  <HBD> 
1 
 
>  <TPSA> 
37.3 
 
>  <cid> 
8892 
 
>  <dipole> 
4.13 
 
>  <excitation_energy_1> 
5.747 
 
>  <excitation_energy_2> 
6.417 
 
>  <excitation_energy_3> 
7.448 
 
>  <excitation_energy_4> 
7.493 
 
>  <homo_energy> 
-7.353 
 
>  <homo_lumo_gap> 
7.69 
 
>  <logP> 
1.651 
 
>  <lumo_energy> 
0.337 
 
>  <melting_point> 
50.6 
 
>  <molecular_refractivity> 
32.73 
 
>  <oscillator_strength_1> 
0.0003 
 
>  <oscillator_strength_2> 
0.0157 
 
>  <oscillator_strength_3> 
0.0035 
 
>  <oscillator_strength_4> 
0.01 
 
>  <open_babel_can_smiles> 
CCCCCC(=O)O 
 
>  <mulliken_charges> 
20 
1   -0.44231 
2   -0.248383 
3   -0.252321 
4   -0.246205 
5   -0.407904 
6   0.608896 
7   -0.436793 
8   -0.569799 
9   0.145339 
10   0.141471 
11   0.14151 
12   0.13532 
13   0.135452 
14   0.126279 
15   0.126191 
16   0.154637 
17   0.155673 
18   0.163618 
19   0.161793 
20   0.407536 
 
>  <lowdin_charges> 
20 
1   -0.445441 
2   -0.272584 
3   -0.276745 
4   -0.270116 
5   -0.324236 
6   0.196569 
7   -0.236288 
8   -0.363144 
9   0.151133 
10   0.14689 
11   0.146912 
12   0.142188 
13   0.142283 
14   0.137349 
15   0.137295 
16   0.15442 
17   0.15497 
18   0.161002 
19   0.159971 
20   0.357573 
 
$$$$ 
 
