PCCDB-ID:  15651 
public computational chemistry database (PCCDB) project, http://pccdb.org 
 
 21 21  0  0  0  0  0  0  0  0999 V2000 
   -3.3736    1.2692    0.0032 C   0  0  0  0  0  0  0  0  0  0  0  0 
   -2.3888    2.1188   -0.4950 C   0  0  0  0  0  0  0  0  0  0  0  0 
   -2.9923    0.0900    0.6529 C   0  0  0  0  0  0  0  0  0  0  0  0 
   -1.0320    1.8090   -0.3547 C   0  0  0  0  0  0  0  0  0  0  0  0 
   -1.6479   -0.2323    0.8003 C   0  0  0  0  0  0  0  0  0  0  0  0 
    2.9913    0.3002    0.2819 C   0  0  0  0  0  0  0  0  0  0  0  0 
    1.6935    1.0285   -0.0231 C   0  0  0  0  0  0  0  0  0  0  0  0 
   -0.6602    0.6266    0.2957 C   0  0  0  0  0  0  0  0  0  0  0  0 
    3.0499   -0.9536   -0.4704 N   0  0  0  0  0  0  0  0  0  0  0  0 
    0.6314    0.2255    0.4944 O   0  0  0  0  0  0  0  0  0  0  0  0 
   -4.4244    1.5187   -0.1113 H   0  0  0  0  0  0  0  0  0  0  0  0 
   -2.6690    3.0383   -1.0025 H   0  0  0  0  0  0  0  0  0  0  0  0 
   -3.7481   -0.5841    1.0474 H   0  0  0  0  0  0  0  0  0  0  0  0 
   -0.2841    2.4866   -0.7502 H   0  0  0  0  0  0  0  0  0  0  0  0 
   -1.3354   -1.1431    1.3020 H   0  0  0  0  0  0  0  0  0  0  0  0 
    3.0728    0.1856    1.3776 H   0  0  0  0  0  0  0  0  0  0  0  0 
    3.8221    0.9408   -0.0395 H   0  0  0  0  0  0  0  0  0  0  0  0 
    1.5800    1.1508   -1.1081 H   0  0  0  0  0  0  0  0  0  0  0  0 
    1.6838    2.0188    0.4541 H   0  0  0  0  0  0  0  0  0  0  0  0 
    2.2733   -1.5438   -0.1767 H   0  0  0  0  0  0  0  0  0  0  0  0 
    3.9024   -1.4591   -0.2372 H   0  0  0  0  0  0  0  0  0  0  0  0 
  1  3  2  0  0  0  0 
  2  4  2  0  0  0  0 
  2  1  1  0  0  0  0 
  3  5  1  0  0  0  0 
  3 13  1  0  0  0  0 
  4  8  1  0  0  0  0 
  5 15  1  0  0  0  0 
  6 16  1  0  0  0  0 
  7  6  1  0  0  0  0 
  7 19  1  0  0  0  0 
  7 10  1  0  0  0  0 
  8 10  1  0  0  0  0 
  8  5  2  0  0  0  0 
  9 21  1  0  0  0  0 
  9 20  1  0  0  0  0 
  9  6  1  0  0  0  0 
 11  1  1  0  0  0  0 
 12  2  1  0  0  0  0 
 14  4  1  0  0  0  0 
 17  6  1  0  0  0  0 
 18  7  1  0  0  0  0 
M  END 
>  <HBA> 
2 
 
>  <HBD> 
1 
 
>  <TPSA> 
35.25 
 
>  <cid> 
15651 
 
>  <dipole> 
1.25 
 
>  <excitation_energy_1> 
5.049 
 
>  <excitation_energy_2> 
5.55 
 
>  <excitation_energy_3> 
5.719 
 
>  <excitation_energy_4> 
5.768 
 
>  <homo_energy> 
-5.859 
 
>  <homo_lumo_gap> 
5.962 
 
>  <logP> 
1.724 
 
>  <lumo_energy> 
0.103 
 
>  <melting_point> 
62.01 
 
>  <molecular_refractivity> 
40.45 
 
>  <oscillator_strength_1> 
0.0327 
 
>  <oscillator_strength_2> 
0.0018 
 
>  <oscillator_strength_3> 
0.0259 
 
>  <oscillator_strength_4> 
0.0741 
 
>  <open_babel_can_smiles> 
NCCOc1ccccc1 
 
>  <mulliken_charges> 
21 
1   -0.133321 
2   -0.137556 
3   -0.132704 
4   -0.193506 
5   -0.17527 
6   -0.149436 
7   -0.028274 
8   0.38229 
9   -0.71961 
10   -0.532664 
11   0.124588 
12   0.128797 
13   0.128868 
14   0.133474 
15   0.131578 
16   0.129297 
17   0.143783 
18   0.154563 
19   0.136711 
20   0.310621 
21   0.297772 
 
>  <lowdin_charges> 
21 
1   -0.178341 
2   -0.145815 
3   -0.148629 
4   -0.215547 
5   -0.184796 
6   -0.206847 
7   -0.129366 
8   0.105195 
9   -0.56158 
10   -0.209942 
11   0.154993 
12   0.157204 
13   0.159073 
14   0.163589 
15   0.163499 
16   0.125053 
17   0.149911 
18   0.145464 
19   0.139055 
20   0.261192 
21   0.256635 
 
$$$$ 
 
