PCCDB-ID:  50959 
public computational chemistry database (PCCDB) project, http://pccdb.org 
 
 27 29  0  0  0  0  0  0  0  0999 V2000 
    0.9382   -0.1669   -0.0600 C   0  0  0  0  0  0  0  0  0  0  0  0 
    6.5009   -5.7309   -0.0671 C   0  0  0  0  0  0  0  0  0  0  0  0 
    3.0217    1.2844   -0.0633 C   0  0  0  0  0  0  0  0  0  0  0  0 
    7.9527   -3.6477   -0.0677 C   0  0  0  0  0  0  0  0  0  0  0  0 
    4.4033    1.4634   -0.0639 C   0  0  0  0  0  0  0  0  0  0  0  0 
    8.1320   -2.2662   -0.0687 C   0  0  0  0  0  0  0  0  0  0  0  0 
    3.2804   -1.1130   -0.0631 C   0  0  0  0  0  0  0  0  0  0  0  0 
    5.5553   -3.3885   -0.0646 C   0  0  0  0  0  0  0  0  0  0  0  0 
    2.4410    0.0031   -0.0625 C   0  0  0  0  0  0  0  0  0  0  0  0 
    6.6712   -4.2282   -0.0658 C   0  0  0  0  0  0  0  0  0  0  0  0 
    4.6733   -0.9655   -0.0640 C   0  0  0  0  0  0  0  0  0  0  0  0 
    5.7031   -1.9956   -0.0653 C   0  0  0  0  0  0  0  0  0  0  0  0 
    5.2237    0.3361   -0.0644 C   0  0  0  0  0  0  0  0  0  0  0  0 
    7.0049   -1.4456   -0.0671 C   0  0  0  0  0  0  0  0  0  0  0  0 
    6.9925    0.3233   -0.0665 S   0  0  0  0  0  0  0  0  0  0  0  0 
    0.4270    0.8009   -0.0594 H   0  0  0  0  0  0  0  0  0  0  0  0 
    0.5983   -0.7223    0.8230 H   0  0  0  0  0  0  0  0  0  0  0  0 
    0.5952   -0.7229   -0.9414 H   0  0  0  0  0  0  0  0  0  0  0  0 
    7.4685   -6.2423   -0.0539 H   0  0  0  0  0  0  0  0  0  0  0  0 
    5.9572   -6.0727   -0.9566 H   0  0  0  0  0  0  0  0  0  0  0  0 
    5.9332   -6.0717    0.8076 H   0  0  0  0  0  0  0  0  0  0  0  0 
    2.3755    2.1587   -0.0641 H   0  0  0  0  0  0  0  0  0  0  0  0 
    8.8269   -4.2942   -0.0680 H   0  0  0  0  0  0  0  0  0  0  0  0 
    4.8280    2.4631   -0.0636 H   0  0  0  0  0  0  0  0  0  0  0  0 
    9.1318   -1.8417   -0.0712 H   0  0  0  0  0  0  0  0  0  0  0  0 
    2.8462   -2.1107   -0.0631 H   0  0  0  0  0  0  0  0  0  0  0  0 
    4.5576   -3.8224   -0.0634 H   0  0  0  0  0  0  0  0  0  0  0  0 
  1 16  1  0  0  0  0 
  1 17  1  0  0  0  0 
  2 10  1  0  0  0  0 
  2 19  1  0  0  0  0 
  2 21  1  0  0  0  0 
  3  9  1  0  0  0  0 
  4 10  1  0  0  0  0 
  5 24  1  0  0  0  0 
  5  3  2  0  0  0  0 
  6  4  2  0  0  0  0 
  6 14  1  0  0  0  0 
  7 26  1  0  0  0  0 
  7  9  2  0  0  0  0 
  8 27  1  0  0  0  0 
  9  1  1  0  0  0  0 
 10  8  2  0  0  0  0 
 11  7  1  0  0  0  0 
 12  8  1  0  0  0  0 
 12 11  1  0  0  0  0 
 13 11  2  0  0  0  0 
 13  5  1  0  0  0  0 
 14 15  1  0  0  0  0 
 14 12  2  0  0  0  0 
 15 13  1  0  0  0  0 
 18  1  1  0  0  0  0 
 20  2  1  0  0  0  0 
 22  3  1  0  0  0  0 
 23  4  1  0  0  0  0 
 25  6  1  0  0  0  0 
M  END 
>  <HBA> 
1 
 
>  <HBD> 
0 
 
>  <TPSA> 
28.24 
 
>  <cid> 
50959 
 
>  <dipole> 
1.47 
 
>  <excitation_energy_1> 
3.944 
 
>  <excitation_energy_2> 
4.458 
 
>  <excitation_energy_3> 
4.74 
 
>  <excitation_energy_4> 
4.824 
 
>  <homo_energy> 
-5.597 
 
>  <homo_lumo_gap> 
4.729 
 
>  <logP> 
4.671 
 
>  <lumo_energy> 
-0.868 
 
>  <melting_point> 
101.9 
 
>  <molecular_refractivity> 
69.26 
 
>  <oscillator_strength_1> 
0.0214 
 
>  <oscillator_strength_2> 
0.1195 
 
>  <oscillator_strength_3> 
0.0 
 
>  <oscillator_strength_4> 
0.0227 
 
>  <open_babel_can_smiles> 
Cc1ccc2c(c1)c1cc(C)ccc1s2 
 
>  <mulliken_charges> 
27 
1   -0.529723 
2   -0.529729 
3   -0.167793 
4   -0.167788 
5   -0.181778 
6   -0.181789 
7   -0.221391 
8   -0.221423 
9   0.162548 
10   0.162558 
11   0.112014 
12   0.112009 
13   -0.14608 
14   -0.146057 
15   0.203783 
16   0.154961 
17   0.162863 
18   0.1628 
19   0.154965 
20   0.163015 
21   0.162649 
22   0.124468 
23   0.124466 
24   0.140089 
25   0.140088 
26   0.12514 
27   0.125136 
 
>  <lowdin_charges> 
27 
1   -0.443157 
2   -0.443158 
3   -0.165258 
4   -0.165258 
5   -0.163049 
6   -0.163047 
7   -0.162909 
8   -0.16291 
9   -0.002517 
10   -0.002517 
11   -0.017914 
12   -0.017915 
13   -0.128085 
14   -0.128086 
15   0.253018 
16   0.156646 
17   0.1612 
18   0.161176 
19   0.156649 
20   0.161215 
21   0.161159 
22   0.15773 
23   0.15773 
24   0.164055 
25   0.164053 
26   0.155575 
27   0.155573 
 
$$$$ 
 
