PCCDB-ID:  66640 
public computational chemistry database (PCCDB) project, http://pccdb.org 
 
 21 21  0  0  0  0  0  0  0  0999 V2000 
    1.8096   -0.6946    1.0779 C   0  0  0  0  0  0  0  0  0  0  0  0 
    3.3825   -3.4281   -1.7069 C   0  0  0  0  0  0  0  0  0  0  0  0 
    2.8358   -2.5400   -0.7931 C   0  0  0  0  0  0  0  0  0  0  0  0 
    4.3176   -1.6015   -2.9529 C   0  0  0  0  0  0  0  0  0  0  0  0 
    4.1476   -2.9762   -2.7922 C   0  0  0  0  0  0  0  0  0  0  0  0 
    3.7519   -0.6993   -2.0565 C   0  0  0  0  0  0  0  0  0  0  0  0 
    3.0049   -1.1495   -0.9399 C   0  0  0  0  0  0  0  0  0  0  0  0 
    4.6976   -4.0012   -3.7357 C   0  0  0  0  0  0  0  0  0  0  0  0 
    3.9601    0.7280   -2.3412 N   0  0  0  0  0  0  0  0  0  0  0  0 
    4.2972   -5.1411   -3.7668 O   0  0  0  0  0  0  0  0  0  0  0  0 
    5.6853   -3.6053   -4.5802 O   0  0  0  0  0  0  0  0  0  0  0  0 
    4.9273    1.0164   -3.0526 O   0  0  0  0  0  0  0  0  0  0  0  0 
    3.1629    1.5406   -1.8854 O   0  0  0  0  0  0  0  0  0  0  0  0 
    2.5263   -0.2466   -0.0723 O   0  0  0  0  0  0  0  0  0  0  0  0 
    1.5427    0.2134    1.6185 H   0  0  0  0  0  0  0  0  0  0  0  0 
    2.4352   -1.3325    1.7130 H   0  0  0  0  0  0  0  0  0  0  0  0 
    0.8988   -1.2330    0.7922 H   0  0  0  0  0  0  0  0  0  0  0  0 
    3.2293   -4.4962   -1.5940 H   0  0  0  0  0  0  0  0  0  0  0  0 
    2.2689   -2.9263    0.0449 H   0  0  0  0  0  0  0  0  0  0  0  0 
    4.8632   -1.1722   -3.7861 H   0  0  0  0  0  0  0  0  0  0  0  0 
    6.0102   -2.7214   -4.3444 H   0  0  0  0  0  0  0  0  0  0  0  0 
  1 15  1  0  0  0  0 
  1 16  1  0  0  0  0 
  2 18  1  0  0  0  0 
  2  3  2  0  0  0  0 
  3 19  1  0  0  0  0 
  4  5  2  0  0  0  0 
  4  6  1  0  0  0  0 
  5  2  1  0  0  0  0 
  6  7  2  0  0  0  0 
  7  3  1  0  0  0  0 
  7 14  1  0  0  0  0 
  8  5  1  0  0  0  0 
  9  6  1  0  0  0  0 
  9 13  2  0  0  0  0 
 10  8  2  0  0  0  0 
 11 21  1  0  0  0  0 
 11  8  1  0  0  0  0 
 12  9  2  0  0  0  0 
 14  1  1  0  0  0  0 
 17  1  1  0  0  0  0 
 20  4  1  0  0  0  0 
M  END 
>  <HBA> 
3 
 
>  <HBD> 
1 
 
>  <TPSA> 
92.35 
 
>  <cid> 
66640 
 
>  <dipole> 
4.84 
 
>  <excitation_energy_1> 
3.668 
 
>  <excitation_energy_2> 
3.859 
 
>  <excitation_energy_3> 
4.227 
 
>  <excitation_energy_4> 
4.556 
 
>  <homo_energy> 
-7.176 
 
>  <homo_lumo_gap> 
4.607 
 
>  <logP> 
1.825 
 
>  <lumo_energy> 
-2.569 
 
>  <melting_point> 
140.55 
 
>  <molecular_refractivity> 
48.72 
 
>  <oscillator_strength_1> 
0.0125 
 
>  <oscillator_strength_2> 
0.06 
 
>  <oscillator_strength_3> 
0.002 
 
>  <oscillator_strength_4> 
0.0002 
 
>  <open_babel_can_smiles> 
COc1ccc(cc1N(=O)=O)C(=O)O 
 
>  <mulliken_charges> 
21 
1   -0.230653 
2   -0.139678 
3   -0.211658 
4   -0.232423 
5   0.047773 
6   0.238649 
7   0.386833 
8   0.562044 
9   0.362151 
10   -0.44688 
11   -0.572871 
12   -0.396315 
13   -0.368324 
14   -0.471803 
15   0.194096 
16   0.166217 
17   0.1692 
18   0.184519 
19   0.159681 
20   0.180443 
21   0.418999 
 
>  <lowdin_charges> 
21 
1   -0.277326 
2   -0.094547 
3   -0.202874 
4   -0.137269 
5   -0.07334 
6   -0.021242 
7   0.126447 
8   0.193876 
9   0.310217 
10   -0.238425 
11   -0.348531 
12   -0.258846 
13   -0.223528 
14   -0.152304 
15   0.177147 
16   0.155985 
17   0.156088 
18   0.186707 
19   0.176949 
20   0.18431 
21   0.360505 
 
$$$$ 
 
