PCCDB-ID:  29489 
public computational chemistry database (PCCDB) project, http://pccdb.org 
 
 30 30  0  0  0  0  0  0  0  0999 V2000 
    2.5243    1.6400    1.4430 C   0  0  0  0  0  0  0  0  0  0  0  0 
    3.4336    0.8528   -0.7949 C   0  0  0  0  0  0  0  0  0  0  0  0 
    4.8191   -2.0815    2.2310 C   0  0  0  0  0  0  0  0  0  0  0  0 
    4.3813   -0.9068    1.6221 C   0  0  0  0  0  0  0  0  0  0  0  0 
    3.9748   -3.1897    2.3237 C   0  0  0  0  0  0  0  0  0  0  0  0 
    2.2402   -1.9181    1.1941 C   0  0  0  0  0  0  0  0  0  0  0  0 
   -0.2987   -5.9231    2.2752 C   0  0  0  0  0  0  0  0  0  0  0  0 
    2.5897    0.4752    0.4366 C   0  0  0  0  0  0  0  0  0  0  0  0 
    3.0842   -0.8074    1.0940 C   0  0  0  0  0  0  0  0  0  0  0  0 
    2.6935   -3.0895    1.7969 C   0  0  0  0  0  0  0  0  0  0  0  0 
    1.3168   -4.8598    0.9277 C   0  0  0  0  0  0  0  0  0  0  0  0 
    0.3693   -5.6933    1.0085 N   0  0  0  0  0  0  0  0  0  0  0  0 
   -1.6608   -6.2248    2.0615 O   0  0  0  0  0  0  0  0  0  0  0  0 
    1.9453   -4.5952   -0.2380 O   0  0  0  0  0  0  0  0  0  0  0  0 
    1.8288   -4.1768    1.9812 O   0  0  0  0  0  0  0  0  0  0  0  0 
    2.1212    2.5404    0.9645 H   0  0  0  0  0  0  0  0  0  0  0  0 
    3.5198    1.8865    1.8309 H   0  0  0  0  0  0  0  0  0  0  0  0 
    1.8854    1.3912    2.2972 H   0  0  0  0  0  0  0  0  0  0  0  0 
    3.0137    1.7354   -1.2915 H   0  0  0  0  0  0  0  0  0  0  0  0 
    3.4644    0.0337   -1.5215 H   0  0  0  0  0  0  0  0  0  0  0  0 
    4.4665    1.0905   -0.5141 H   0  0  0  0  0  0  0  0  0  0  0  0 
    5.8260   -2.1398    2.6351 H   0  0  0  0  0  0  0  0  0  0  0  0 
    5.0564   -0.0576    1.5591 H   0  0  0  0  0  0  0  0  0  0  0  0 
    4.2931   -4.1147    2.7932 H   0  0  0  0  0  0  0  0  0  0  0  0 
    1.2268   -1.8759    0.8051 H   0  0  0  0  0  0  0  0  0  0  0  0 
   -0.2834   -5.0466    2.9331 H   0  0  0  0  0  0  0  0  0  0  0  0 
    0.2136   -6.7500    2.7961 H   0  0  0  0  0  0  0  0  0  0  0  0 
    1.5658    0.2841    0.0881 H   0  0  0  0  0  0  0  0  0  0  0  0 
   -1.6832   -6.8730    1.3391 H   0  0  0  0  0  0  0  0  0  0  0  0 
    1.4902   -5.1428   -0.9016 H   0  0  0  0  0  0  0  0  0  0  0  0 
  1 17  1  0  0  0  0 
  1 18  1  0  0  0  0 
  2 21  1  0  0  0  0 
  2  8  1  0  0  0  0 
  3  5  1  0  0  0  0 
  3 22  1  0  0  0  0 
  4  3  2  0  0  0  0 
  5 24  1  0  0  0  0 
  6 10  1  0  0  0  0 
  7 27  1  0  0  0  0 
  7 26  1  0  0  0  0 
  8  9  1  0  0  0  0 
  8  1  1  0  0  0  0 
  9  6  2  0  0  0  0 
  9  4  1  0  0  0  0 
 10 15  1  0  0  0  0 
 10  5  2  0  0  0  0 
 11 12  2  0  0  0  0 
 11 15  1  0  0  0  0 
 12  7  1  0  0  0  0 
 13  7  1  0  0  0  0 
 14 11  1  0  0  0  0 
 16  1  1  0  0  0  0 
 19  2  1  0  0  0  0 
 20  2  1  0  0  0  0 
 23  4  1  0  0  0  0 
 25  6  1  0  0  0  0 
 28  8  1  0  0  0  0 
 29 13  1  0  0  0  0 
 30 14  1  0  0  0  0 
M  END 
>  <HBA> 
4 
 
>  <HBD> 
2 
 
>  <TPSA> 
58.56 
 
>  <cid> 
29489 
 
>  <dipole> 
2.96 
 
>  <excitation_energy_1> 
5.238 
 
>  <excitation_energy_2> 
5.752 
 
>  <excitation_energy_3> 
5.941 
 
>  <excitation_energy_4> 
6.006 
 
>  <homo_energy> 
-6.555 
 
>  <homo_lumo_gap> 
6.389 
 
>  <logP> 
2.239 
 
>  <lumo_energy> 
-0.166 
 
>  <melting_point> 
88.79 
 
>  <molecular_refractivity> 
56.87 
 
>  <oscillator_strength_1> 
0.0025 
 
>  <oscillator_strength_2> 
0.0657 
 
>  <oscillator_strength_3> 
0.013 
 
>  <oscillator_strength_4> 
0.0044 
 
>  <open_babel_can_smiles> 
OC/N=C(\Oc1cccc(c1)C(C)C)/O 
 
>  <mulliken_charges> 
30 
1   -0.439065 
2   -0.440228 
3   -0.141464 
4   -0.177353 
5   -0.159511 
6   -0.213779 
7   0.085322 
8   -0.162708 
9   0.177059 
10   0.358278 
11   0.711055 
12   -0.515677 
13   -0.608947 
14   -0.587265 
15   -0.536831 
16   0.144128 
17   0.144406 
18   0.152185 
19   0.144076 
20   0.152568 
21   0.144091 
22   0.136418 
23   0.128406 
24   0.142477 
25   0.138209 
26   0.152331 
27   0.126832 
28   0.132938 
29   0.38686 
30   0.425189 
 
>  <lowdin_charges> 
30 
1   -0.441936 
2   -0.441554 
3   -0.144704 
4   -0.170626 
5   -0.174273 
6   -0.179779 
7   -0.070272 
8   -0.116934 
9   0.010213 
10   0.104285 
11   0.195658 
12   -0.281069 
13   -0.461641 
14   -0.356429 
15   -0.156754 
16   0.15044 
17   0.147737 
18   0.154685 
19   0.150763 
20   0.154826 
21   0.146843 
22   0.160368 
23   0.157976 
24   0.169405 
25   0.164572 
26   0.142682 
27   0.126652 
28   0.142685 
29   0.340809 
30   0.375372 
 
$$$$ 
 
