PCCDB-ID:  19773 
public computational chemistry database (PCCDB) project, http://pccdb.org 
 
 47 46  0  0  1  0  0  0  0  0999 V2000 
    8.2718   -1.1916    0.5687 C   0  0  0  0  0  0  0  0  0  0  0  0 
   10.9486    4.6724    3.8120 C   0  0  0  0  0  0  0  0  0  0  0  0 
    8.6795    5.7782    3.7836 C   0  0  0  0  0  0  0  0  0  0  0  0 
    6.2210   -1.9679   -1.7398 C   0  0  0  0  0  0  0  0  0  0  0  0 
    6.3065    5.6007   -1.3601 C   0  0  0  0  0  0  0  0  0  0  0  0 
    8.4742   -1.0636   -0.9470 C   0  0  0  0  0  0  0  0  0  0  0  0 
    8.3354    4.5615    0.8793 C   0  0  0  0  0  0  0  0  0  0  0  0 
    7.3166    1.8037   -1.5339 C   0  0  0  0  0  0  0  0  0  0  0  0 
    9.6528    4.7663    1.6420 C   0  0  0  0  0  0  0  0  0  0  0  0 
    6.4769    0.5253   -1.3979 C   0  0  0  0  0  0  0  0  0  0  0  0 
    8.5349    4.5713   -0.6446 C   0  0  0  0  0  0  0  0  0  0  0  0 
    6.5061    3.0796   -1.2620 C   0  0  0  0  0  0  0  0  0  0  0  0 
    9.5499    4.6665    3.1773 C   0  0  0  0  0  0  0  0  0  0  0  0 
    7.2005   -0.7833   -1.7789 C   0  0  2  0  0  0  0  0  0  0  0  0 
    7.2604    4.4035   -1.5060 C   0  0  1  0  0  0  0  0  0  0  0  0 
    9.2234   -1.4120    1.0661 H   0  0  0  0  0  0  0  0  0  0  0  0 
    7.5753   -1.9988    0.8224 H   0  0  0  0  0  0  0  0  0  0  0  0 
    7.8803   -0.2669    1.0077 H   0  0  0  0  0  0  0  0  0  0  0  0 
   10.8929    4.5638    4.9019 H   0  0  0  0  0  0  0  0  0  0  0  0 
   11.4701    5.6146    3.5988 H   0  0  0  0  0  0  0  0  0  0  0  0 
   11.5678    3.8543    3.4249 H   0  0  0  0  0  0  0  0  0  0  0  0 
    8.6254    5.6834    4.8747 H   0  0  0  0  0  0  0  0  0  0  0  0 
    7.6540    5.7550    3.3996 H   0  0  0  0  0  0  0  0  0  0  0  0 
    9.0987    6.7679    3.5573 H   0  0  0  0  0  0  0  0  0  0  0  0 
    6.7160   -2.9037   -2.0264 H   0  0  0  0  0  0  0  0  0  0  0  0 
    5.3842   -1.8078   -2.4301 H   0  0  0  0  0  0  0  0  0  0  0  0 
    5.7959   -2.1093   -0.7387 H   0  0  0  0  0  0  0  0  0  0  0  0 
    6.8273    6.5490   -1.5408 H   0  0  0  0  0  0  0  0  0  0  0  0 
    5.8662    5.6486   -0.3568 H   0  0  0  0  0  0  0  0  0  0  0  0 
    5.4787    5.5330   -2.0762 H   0  0  0  0  0  0  0  0  0  0  0  0 
    8.9280   -1.9909   -1.3244 H   0  0  0  0  0  0  0  0  0  0  0  0 
    9.2111   -0.2734   -1.1407 H   0  0  0  0  0  0  0  0  0  0  0  0 
    7.6174    5.3411    1.1625 H   0  0  0  0  0  0  0  0  0  0  0  0 
    7.8905    3.6055    1.1914 H   0  0  0  0  0  0  0  0  0  0  0  0 
    7.7403    1.8534   -2.5487 H   0  0  0  0  0  0  0  0  0  0  0  0 
    8.1722    1.7583   -0.8486 H   0  0  0  0  0  0  0  0  0  0  0  0 
   10.0808    5.7455    1.3756 H   0  0  0  0  0  0  0  0  0  0  0  0 
   10.3776    4.0158    1.2933 H   0  0  0  0  0  0  0  0  0  0  0  0 
    5.5873    0.6203   -2.0381 H   0  0  0  0  0  0  0  0  0  0  0  0 
    6.0938    0.4488   -0.3698 H   0  0  0  0  0  0  0  0  0  0  0  0 
    9.2546    3.7846   -0.9098 H   0  0  0  0  0  0  0  0  0  0  0  0 
    9.0160    5.5184   -0.9304 H   0  0  0  0  0  0  0  0  0  0  0  0 
    6.1247    3.0560   -0.2309 H   0  0  0  0  0  0  0  0  0  0  0  0 
    5.6150    3.0728   -1.9065 H   0  0  0  0  0  0  0  0  0  0  0  0 
    9.0775    3.7006    3.4158 H   0  0  0  0  0  0  0  0  0  0  0  0 
    7.5344   -0.6734   -2.8228 H   0  0  0  0  0  0  0  0  0  0  0  0 
    7.6012    4.3893   -2.5532 H   0  0  0  0  0  0  0  0  0  0  0  0 
  1 17  1  0  0  0  0 
  1 18  1  0  0  0  0 
  1 16  1  0  0  0  0 
  2 19  1  0  0  0  0 
  3 22  1  0  0  0  0 
  4 27  1  0  0  0  0 
  5 29  1  0  0  0  0 
  6  1  1  0  0  0  0 
  7 33  1  0  0  0  0 
  7 34  1  0  0  0  0 
  7  9  1  0  0  0  0 
  8 10  1  0  0  0  0 
  8 12  1  0  0  0  0 
  8 36  1  0  0  0  0 
  9 13  1  0  0  0  0 
 10 40  1  0  0  0  0 
 11  7  1  0  0  0  0 
 12 43  1  0  0  0  0 
 13 45  1  0  0  0  0 
 13  3  1  0  0  0  0 
 13  2  1  0  0  0  0 
 14 46  1  6  0  0  0 
 14  4  1  0  0  0  0 
 14 10  1  0  0  0  0 
 14  6  1  0  0  0  0 
 15 47  1  6  0  0  0 
 15  5  1  0  0  0  0 
 15 12  1  0  0  0  0 
 15 11  1  0  0  0  0 
 20  2  1  0  0  0  0 
 21  2  1  0  0  0  0 
 23  3  1  0  0  0  0 
 24  3  1  0  0  0  0 
 25  4  1  0  0  0  0 
 26  4  1  0  0  0  0 
 28  5  1  0  0  0  0 
 30  5  1  0  0  0  0 
 31  6  1  0  0  0  0 
 32  6  1  0  0  0  0 
 35  8  1  0  0  0  0 
 37  9  1  0  0  0  0 
 38  9  1  0  0  0  0 
 39 10  1  0  0  0  0 
 41 11  1  0  0  0  0 
 42 11  1  0  0  0  0 
 44 12  1  0  0  0  0 
M  END 
>  <HBA> 
0 
 
>  <HBD> 
0 
 
>  <TPSA> 
0.0 
 
>  <cid> 
19773 
 
>  <dipole> 
0.12 
 
>  <excitation_energy_1> 
7.361 
 
>  <excitation_energy_2> 
7.383 
 
>  <excitation_energy_3> 
7.572 
 
>  <excitation_energy_4> 
7.626 
 
>  <homo_energy> 
-7.919 
 
>  <homo_lumo_gap> 
9.851 
 
>  <logP> 
5.665 
 
>  <lumo_energy> 
1.932 
 
>  <melting_point> 
-32.54 
 
>  <molecular_refractivity> 
74.22 
 
>  <oscillator_strength_1> 
0.0152 
 
>  <oscillator_strength_2> 
0.0068 
 
>  <oscillator_strength_3> 
0.0159 
 
>  <oscillator_strength_4> 
0.0131 
 
>  <open_babel_can_smiles> 
CC[C@H](CCC[C@H](CCCC(C)C)C)C 
 
>  <mulliken_charges> 
47 
1   -0.45094 
2   -0.441489 
3   -0.444558 
4   -0.449456 
5   -0.450055 
6   -0.254179 
7   -0.267611 
8   -0.268938 
9   -0.246077 
10   -0.254591 
11   -0.262689 
12   -0.254182 
13   -0.065568 
14   -0.065253 
15   -0.070127 
16   0.14147 
17   0.145498 
18   0.144914 
19   0.138176 
20   0.137729 
21   0.138528 
22   0.138828 
23   0.144193 
24   0.136999 
25   0.137573 
26   0.138932 
27   0.141602 
28   0.137634 
29   0.142072 
30   0.138798 
31   0.1269 
32   0.132685 
33   0.136796 
34   0.129905 
35   0.125108 
36   0.139105 
37   0.122662 
38   0.12346 
39   0.124159 
40   0.127149 
41   0.129602 
42   0.124052 
43   0.127808 
44   0.123745 
45   0.118305 
46   0.115747 
47   0.115578 
 
>  <lowdin_charges> 
47 
1   -0.451121 
2   -0.443274 
3   -0.443304 
4   -0.446539 
5   -0.446439 
6   -0.278458 
7   -0.282012 
8   -0.279023 
9   -0.275075 
10   -0.276624 
11   -0.279861 
12   -0.276579 
13   -0.120086 
14   -0.123109 
15   -0.122584 
16   0.150253 
17   0.148353 
18   0.146854 
19   0.144881 
20   0.145013 
21   0.147494 
22   0.14572 
23   0.147189 
24   0.144105 
25   0.146615 
26   0.148039 
27   0.145271 
28   0.146492 
29   0.144983 
30   0.1479 
31   0.140381 
32   0.141492 
33   0.142123 
34   0.138008 
35   0.136227 
36   0.141356 
37   0.135706 
38   0.138879 
39   0.139131 
40   0.136619 
41   0.140034 
42   0.138963 
43   0.136529 
44   0.138966 
45   0.133207 
46   0.133521 
47   0.133782 
 
$$$$ 
 
