PCCDB-ID:  10640 
public computational chemistry database (PCCDB) project, http://pccdb.org 
 
 18 19  0  0  0  0  0  0  0  0999 V2000 
   -2.4622    0.6931   -0.0009 C   0  0  0  0  0  0  0  0  0  0  0  0 
   -2.4492   -0.7040    0.0007 C   0  0  0  0  0  0  0  0  0  0  0  0 
   -1.2595    1.3949   -0.0022 C   0  0  0  0  0  0  0  0  0  0  0  0 
   -1.2392   -1.3982    0.0014 C   0  0  0  0  0  0  0  0  0  0  0  0 
   -0.0454    0.7044   -0.0021 C   0  0  0  0  0  0  0  0  0  0  0  0 
   -0.0217   -0.7044   -0.0003 C   0  0  0  0  0  0  0  0  0  0  0  0 
    1.2379    1.4564   -0.0017 C   0  0  0  0  0  0  0  0  0  0  0  0 
    1.3121   -1.3653   -0.0005 C   0  0  0  0  0  0  0  0  0  0  0  0 
    2.5415    0.6140    0.0020 C   0  0  0  0  0  0  0  0  0  0  0  0 
    2.4580   -0.7799    0.0011 N   0  0  0  0  0  0  0  0  0  0  0  0 
    1.2828    2.6707   -0.0031 O   0  0  0  0  0  0  0  0  0  0  0  0 
    1.3611   -2.7107   -0.0027 O   0  0  0  0  0  0  0  0  0  0  0  0 
    3.6090    1.1883    0.0053 O   0  0  0  0  0  0  0  0  0  0  0  0 
   -3.4072    1.2281   -0.0000 H   0  0  0  0  0  0  0  0  0  0  0  0 
   -3.3831   -1.2581    0.0010 H   0  0  0  0  0  0  0  0  0  0  0  0 
   -1.2319    2.4798   -0.0033 H   0  0  0  0  0  0  0  0  0  0  0  0 
   -1.2812   -2.4853    0.0048 H   0  0  0  0  0  0  0  0  0  0  0  0 
    0.4712   -3.0940   -0.0070 H   0  0  0  0  0  0  0  0  0  0  0  0 
  1 14  1  0  0  0  0 
  1  2  2  0  0  0  0 
  2 15  1  0  0  0  0 
  2  4  1  0  0  0  0 
  3  5  2  0  0  0  0 
  3  1  1  0  0  0  0 
  4 17  1  0  0  0  0 
  5  7  1  0  0  0  0 
  5  6  1  0  0  0  0 
  6  4  2  0  0  0  0 
  7  9  1  0  0  0  0 
  8  6  1  0  0  0  0 
  8 10  2  0  0  0  0 
  9 13  2  0  0  0  0 
 10  9  1  0  0  0  0 
 11  7  2  0  0  0  0 
 12  8  1  0  0  0  0 
 16  3  1  0  0  0  0 
 18 12  1  0  0  0  0 
M  END 
>  <HBA> 
4 
 
>  <HBD> 
1 
 
>  <TPSA> 
63.24 
 
>  <cid> 
10640 
 
>  <dipole> 
9.08 
 
>  <excitation_energy_1> 
2.148 
 
>  <excitation_energy_2> 
3.232 
 
>  <excitation_energy_3> 
3.701 
 
>  <excitation_energy_4> 
3.774 
 
>  <homo_energy> 
-6.659 
 
>  <homo_lumo_gap> 
3.418 
 
>  <logP> 
0.468 
 
>  <lumo_energy> 
-3.241 
 
>  <melting_point> 
145.92 
 
>  <molecular_refractivity> 
46.83 
 
>  <oscillator_strength_1> 
0.0 
 
>  <oscillator_strength_2> 
0.0 
 
>  <oscillator_strength_3> 
0.0388 
 
>  <oscillator_strength_4> 
0.0002 
 
>  <open_babel_can_smiles> 
O=C1N=C(O)c2c(C1=O)cccc2 
 
>  <mulliken_charges> 
18 
1   -0.124505 
2   -0.114216 
3   -0.156115 
4   -0.230382 
5   0.054504 
6   0.100185 
7   0.327859 
8   0.462372 
9   0.512905 
10   -0.499946 
11   -0.425116 
12   -0.561135 
13   -0.407111 
14   0.159284 
15   0.156868 
16   0.182303 
17   0.135838 
18   0.426407 
 
>  <lowdin_charges> 
18 
1   -0.132844 
2   -0.130966 
3   -0.111402 
4   -0.154162 
5   -0.032637 
6   -0.040175 
7   0.11717 
8   0.164266 
9   0.13077 
10   -0.184111 
11   -0.175942 
12   -0.316638 
13   -0.176422 
14   0.172736 
15   0.172003 
16   0.184292 
17   0.155243 
18   0.358819 
 
$$$$ 
 
