PCCDB-ID:  20666 
public computational chemistry database (PCCDB) project, http://pccdb.org 
 
 22 22  0  0  0  0  0  0  0  0999 V2000 
    0.6298    1.2080   -0.2475 C   0  0  0  0  0  0  0  0  0  0  0  0 
   -1.3811   -0.0961   -0.3994 C   0  0  0  0  0  0  0  0  0  0  0  0 
   -1.5070    2.3414   -0.5241 C   0  0  0  0  0  0  0  0  0  0  0  0 
    1.3111    0.0203    0.4283 C   0  0  0  0  0  0  0  0  0  0  0  0 
   -0.6442   -1.2502    0.2772 C   0  0  0  0  0  0  0  0  0  0  0  0 
   -2.8506    2.6178    0.1585 C   0  0  0  0  0  0  0  0  0  0  0  0 
   -0.8089    1.1833    0.0310 N   0  0  0  0  0  0  0  0  0  0  0  0 
    0.7478   -1.2115   -0.0015 O   0  0  0  0  0  0  0  0  0  0  0  0 
   -2.6819    2.9774    1.9567 S   0  0  0  0  0  0  0  0  0  0  0  0 
    0.8371    1.1694   -1.3346 H   0  0  0  0  0  0  0  0  0  0  0  0 
    1.0497    2.1434    0.1412 H   0  0  0  0  0  0  0  0  0  0  0  0 
   -2.4406   -0.1360   -0.1227 H   0  0  0  0  0  0  0  0  0  0  0  0 
   -1.3146   -0.2157   -1.4986 H   0  0  0  0  0  0  0  0  0  0  0  0 
   -0.8635    3.2172   -0.3886 H   0  0  0  0  0  0  0  0  0  0  0  0 
   -1.6809    2.2273   -1.6126 H   0  0  0  0  0  0  0  0  0  0  0  0 
    1.2191    0.1180    1.5227 H   0  0  0  0  0  0  0  0  0  0  0  0 
    2.3729   -0.0151    0.1666 H   0  0  0  0  0  0  0  0  0  0  0  0 
   -1.0099   -2.2115   -0.0961 H   0  0  0  0  0  0  0  0  0  0  0  0 
   -0.8150   -1.2063    1.3656 H   0  0  0  0  0  0  0  0  0  0  0  0 
   -3.5519    1.7902    0.0147 H   0  0  0  0  0  0  0  0  0  0  0  0 
   -3.3049    3.5077   -0.2872 H   0  0  0  0  0  0  0  0  0  0  0  0 
   -1.7810    1.9909    2.1667 H   0  0  0  0  0  0  0  0  0  0  0  0 
  1  7  1  0  0  0  0 
  1 11  1  0  0  0  0 
  1  4  1  0  0  0  0 
  2 12  1  0  0  0  0 
  2  7  1  0  0  0  0 
  2  5  1  0  0  0  0 
  3 14  1  0  0  0  0 
  3  7  1  0  0  0  0 
  3  6  1  0  0  0  0 
  4 16  1  0  0  0  0 
  5 19  1  0  0  0  0 
  6  9  1  0  0  0  0 
  8  5  1  0  0  0  0 
  8  4  1  0  0  0  0 
  9 22  1  0  0  0  0 
 10  1  1  0  0  0  0 
 13  2  1  0  0  0  0 
 15  3  1  0  0  0  0 
 17  4  1  0  0  0  0 
 18  5  1  0  0  0  0 
 20  6  1  0  0  0  0 
 21  6  1  0  0  0  0 
M  END 
>  <HBA> 
3 
 
>  <HBD> 
1 
 
>  <TPSA> 
51.27 
 
>  <cid> 
20666 
 
>  <dipole> 
1.75 
 
>  <excitation_energy_1> 
5.34 
 
>  <excitation_energy_2> 
5.677 
 
>  <excitation_energy_3> 
5.725 
 
>  <excitation_energy_4> 
5.875 
 
>  <homo_energy> 
-6.15 
 
>  <homo_lumo_gap> 
7.124 
 
>  <logP> 
0.186 
 
>  <lumo_energy> 
0.974 
 
>  <melting_point> 
9.96 
 
>  <molecular_refractivity> 
44.67 
 
>  <oscillator_strength_1> 
0.0064 
 
>  <oscillator_strength_2> 
0.0133 
 
>  <oscillator_strength_3> 
0.0355 
 
>  <oscillator_strength_4> 
0.1127 
 
>  <open_babel_can_smiles> 
SCCN1CCOCC1 
 
>  <mulliken_charges> 
22 
1   -0.134755 
2   -0.140961 
3   -0.111975 
4   -0.034999 
5   -0.033356 
6   -0.411146 
7   -0.404232 
8   -0.465311 
9   -0.109204 
10   0.124069 
11   0.146408 
12   0.145624 
13   0.12443 
14   0.157513 
15   0.124692 
16   0.129549 
17   0.147876 
18   0.148107 
19   0.129735 
20   0.175827 
21   0.178043 
22   0.114064 
 
>  <lowdin_charges> 
22 
1   -0.213498 
2   -0.2141 
3   -0.201648 
4   -0.132905 
5   -0.133891 
6   -0.378717 
7   -0.192842 
8   -0.272467 
9   -0.109878 
10   0.123265 
11   0.152902 
12   0.150044 
13   0.122943 
14   0.156152 
15   0.126429 
16   0.129749 
17   0.151522 
18   0.15336 
19   0.130049 
20   0.156505 
21   0.171182 
22   0.125844 
 
$$$$ 
 
