PCCDB-ID:  34358 
public computational chemistry database (PCCDB) project, http://pccdb.org 
 
 30 31  0  0  0  0  0  0  0  0999 V2000 
   -0.3649   -2.9894   -0.5963 C   0  0  0  0  0  0  0  0  0  0  0  0 
    4.8683   -6.5737   -1.2935 C   0  0  0  0  0  0  0  0  0  0  0  0 
    8.5290   -5.5575   -0.9073 C   0  0  0  0  0  0  0  0  0  0  0  0 
    8.4270   -4.1936   -0.6135 C   0  0  0  0  0  0  0  0  0  0  0  0 
    2.0208   -0.0390   -0.1025 C   0  0  0  0  0  0  0  0  0  0  0  0 
    0.8521   -0.7903   -0.2389 C   0  0  0  0  0  0  0  0  0  0  0  0 
    7.3767   -6.3127   -1.1235 C   0  0  0  0  0  0  0  0  0  0  0  0 
    3.2624   -0.6625   -0.1870 C   0  0  0  0  0  0  0  0  0  0  0  0 
    7.1750   -3.5979   -0.5398 C   0  0  0  0  0  0  0  0  0  0  0  0 
    2.1524   -2.7928   -0.5466 C   0  0  0  0  0  0  0  0  0  0  0  0 
    0.9032   -2.1763   -0.4611 C   0  0  0  0  0  0  0  0  0  0  0  0 
    6.1028   -5.7374   -1.0541 C   0  0  0  0  0  0  0  0  0  0  0  0 
    3.3320   -2.0446   -0.4107 C   0  0  0  0  0  0  0  0  0  0  0  0 
    6.0136   -4.3585   -0.7593 C   0  0  0  0  0  0  0  0  0  0  0  0 
    4.6437   -2.5798   -0.4832 N   0  0  0  0  0  0  0  0  0  0  0  0 
    4.7028   -3.8216   -0.6959 N   0  0  0  0  0  0  0  0  0  0  0  0 
   -1.2494   -2.3465   -0.6459 H   0  0  0  0  0  0  0  0  0  0  0  0 
   -0.4955   -3.6680    0.2561 H   0  0  0  0  0  0  0  0  0  0  0  0 
   -0.3477   -3.6087   -1.5007 H   0  0  0  0  0  0  0  0  0  0  0  0 
    5.1405   -7.6208   -1.4602 H   0  0  0  0  0  0  0  0  0  0  0  0 
    4.3095   -6.2232   -2.1682 H   0  0  0  0  0  0  0  0  0  0  0  0 
    4.1803   -6.5274   -0.4432 H   0  0  0  0  0  0  0  0  0  0  0  0 
    9.5052   -6.0317   -0.9667 H   0  0  0  0  0  0  0  0  0  0  0  0 
    9.3223   -3.6019   -0.4426 H   0  0  0  0  0  0  0  0  0  0  0  0 
    1.9596    1.0323    0.0679 H   0  0  0  0  0  0  0  0  0  0  0  0 
   -0.1152   -0.2977   -0.1718 H   0  0  0  0  0  0  0  0  0  0  0  0 
    7.4634   -7.3725   -1.3504 H   0  0  0  0  0  0  0  0  0  0  0  0 
    4.1896   -0.1068   -0.0876 H   0  0  0  0  0  0  0  0  0  0  0  0 
    7.0634   -2.5436   -0.3130 H   0  0  0  0  0  0  0  0  0  0  0  0 
    2.2344   -3.8610   -0.7203 H   0  0  0  0  0  0  0  0  0  0  0  0 
  1 11  1  0  0  0  0 
  1 18  1  0  0  0  0 
  2 12  1  0  0  0  0 
  2 22  1  0  0  0  0 
  3  4  2  0  0  0  0 
  4  9  1  0  0  0  0 
  4 24  1  0  0  0  0 
  5 25  1  0  0  0  0 
  6 26  1  0  0  0  0 
  6  5  2  0  0  0  0 
  7 12  2  0  0  0  0 
  7  3  1  0  0  0  0 
  8  5  1  0  0  0  0 
  8 28  1  0  0  0  0 
  9 29  1  0  0  0  0 
 10 11  2  0  0  0  0 
 10 13  1  0  0  0  0 
 11  6  1  0  0  0  0 
 12 14  1  0  0  0  0 
 13  8  2  0  0  0  0 
 14 16  1  0  0  0  0 
 14  9  2  0  0  0  0 
 15 13  1  0  0  0  0 
 16 15  2  0  0  0  0 
 17  1  1  0  0  0  0 
 19  1  1  0  0  0  0 
 20  2  1  0  0  0  0 
 21  2  1  0  0  0  0 
 23  3  1  0  0  0  0 
 27  7  1  0  0  0  0 
 30 10  1  0  0  0  0 
M  END 
>  <HBA> 
2 
 
>  <HBD> 
0 
 
>  <TPSA> 
24.72 
 
>  <cid> 
34358 
 
>  <dipole> 
0.74 
 
>  <excitation_energy_1> 
2.517 
 
>  <excitation_energy_2> 
3.518 
 
>  <excitation_energy_3> 
3.796 
 
>  <excitation_energy_4> 
3.807 
 
>  <homo_energy> 
-5.995 
 
>  <homo_lumo_gap> 
3.861 
 
>  <logP> 
4.719 
 
>  <lumo_energy> 
-2.133 
 
>  <melting_point> 
70.49 
 
>  <molecular_refractivity> 
66.99 
 
>  <oscillator_strength_1> 
0.0002 
 
>  <oscillator_strength_2> 
0.7288 
 
>  <oscillator_strength_3> 
0.0298 
 
>  <oscillator_strength_4> 
0.0114 
 
>  <open_babel_can_smiles> 
Cc1cccc(c1)/N=N/c1ccccc1C 
 
>  <mulliken_charges> 
30 
1   -0.527607 
2   -0.515261 
3   -0.111118 
4   -0.150206 
5   -0.135782 
6   -0.169313 
7   -0.197417 
8   -0.14318 
9   -0.122259 
10   -0.18169 
11   0.161234 
12   0.157906 
13   0.273527 
14   0.217331 
15   -0.309318 
16   -0.310935 
17   0.154653 
18   0.166941 
19   0.164344 
20   0.145903 
21   0.169605 
22   0.171139 
23   0.131913 
24   0.133031 
25   0.133282 
26   0.125887 
27   0.12597 
28   0.139248 
29   0.155461 
30   0.146711 
 
>  <lowdin_charges> 
30 
1   -0.443212 
2   -0.440273 
3   -0.144423 
4   -0.160722 
5   -0.153352 
6   -0.158212 
7   -0.167628 
8   -0.152582 
9   -0.145856 
10   -0.159111 
11   0.003655 
12   0.010848 
13   0.013284 
14   -0.000116 
15   -0.080669 
16   -0.083517 
17   0.156958 
18   0.163606 
19   0.162336 
20   0.151132 
21   0.166899 
22   0.167384 
23   0.159043 
24   0.159463 
25   0.15814 
26   0.156309 
27   0.154682 
28   0.166854 
29   0.171608 
30   0.167472 
 
$$$$ 
 
