PCCDB-ID:  21505 
public computational chemistry database (PCCDB) project, http://pccdb.org 
 
 23 23  0  0  0  0  0  0  0  0999 V2000 
    0.4813   -0.4842   -0.7139 C   0  0  0  0  0  0  0  0  0  0  0  0 
   -0.2180    0.5148   -3.5174 C   0  0  0  0  0  0  0  0  0  0  0  0 
   -0.1245    0.8124   -4.8993 C   0  0  0  0  0  0  0  0  0  0  0  0 
    1.4307   -0.6238   -1.8806 C   0  0  0  0  0  0  0  0  0  0  0  0 
    0.9645   -0.1038   -3.1524 C   0  0  0  0  0  0  0  0  0  0  0  0 
    1.1052    0.3573   -5.2886 C   0  0  0  0  0  0  0  0  0  0  0  0 
    4.7010   -2.0140   -2.1695 C   0  0  0  0  0  0  0  0  0  0  0  0 
    5.0439   -2.4469   -1.0281 N   0  0  0  0  0  0  0  0  0  0  0  0 
    2.5703   -1.1948   -1.6312 N   0  0  0  0  0  0  0  0  0  0  0  0 
    3.5133   -1.3885   -2.5592 N   0  0  0  0  0  0  0  0  0  0  0  0 
    1.7612    0.3750   -6.5522 N   0  0  0  0  0  0  0  0  0  0  0  0 
    5.5049   -2.1077   -3.2549 O   0  0  0  0  0  0  0  0  0  0  0  0 
    1.1297    0.8863   -7.4823 O   0  0  0  0  0  0  0  0  0  0  0  0 
    2.8906   -0.1135   -6.6196 O   0  0  0  0  0  0  0  0  0  0  0  0 
    1.7787   -0.1984   -4.2525 O   0  0  0  0  0  0  0  0  0  0  0  0 
    0.2601    0.5689   -0.4993 H   0  0  0  0  0  0  0  0  0  0  0  0 
    0.9392   -0.9296    0.1708 H   0  0  0  0  0  0  0  0  0  0  0  0 
   -0.4724   -0.9905   -0.9077 H   0  0  0  0  0  0  0  0  0  0  0  0 
   -1.0507    0.7281   -2.8635 H   0  0  0  0  0  0  0  0  0  0  0  0 
   -0.8496    1.2955   -5.5362 H   0  0  0  0  0  0  0  0  0  0  0  0 
    4.3013   -2.2806   -0.3485 H   0  0  0  0  0  0  0  0  0  0  0  0 
    3.4100   -1.1046   -3.5294 H   0  0  0  0  0  0  0  0  0  0  0  0 
    6.3127   -2.5493   -2.9396 H   0  0  0  0  0  0  0  0  0  0  0  0 
  1 16  1  0  0  0  0 
  1 17  1  0  0  0  0 
  2  5  2  0  0  0  0 
  2 19  1  0  0  0  0 
  3  2  1  0  0  0  0 
  4  9  2  0  0  0  0 
  4  1  1  0  0  0  0 
  5  4  1  0  0  0  0 
  6  3  2  0  0  0  0 
  6 15  1  0  0  0  0 
  7  8  2  0  0  0  0 
  8 21  1  0  0  0  0 
 10  7  1  0  0  0  0 
 10  9  1  0  0  0  0 
 11  6  1  0  0  0  0 
 12 23  1  0  0  0  0 
 12  7  1  0  0  0  0 
 13 11  2  0  0  0  0 
 14 11  2  0  0  0  0 
 15  5  1  0  0  0  0 
 18  1  1  0  0  0  0 
 20  3  1  0  0  0  0 
 22 10  1  0  0  0  0 
M  END 
>  <HBA> 
5 
 
>  <HBD> 
2 
 
>  <TPSA> 
126.44 
 
>  <cid> 
21505 
 
>  <dipole> 
5.02 
 
>  <excitation_energy_1> 
2.952 
 
>  <excitation_energy_2> 
3.704 
 
>  <excitation_energy_3> 
3.994 
 
>  <excitation_energy_4> 
4.177 
 
>  <homo_energy> 
-6.259 
 
>  <homo_lumo_gap> 
3.331 
 
>  <logP> 
2.195 
 
>  <lumo_energy> 
-2.928 
 
>  <melting_point> 
175.87 
 
>  <molecular_refractivity> 
51.89 
 
>  <oscillator_strength_1> 
0.2294 
 
>  <oscillator_strength_2> 
0.0 
 
>  <oscillator_strength_3> 
0.0815 
 
>  <oscillator_strength_4> 
0.0002 
 
>  <open_babel_can_smiles> 
C/C(=N/NC(=N)O)/c1ccc(o1)N(=O)=O 
 
>  <mulliken_charges> 
23 
1   -0.518852 
2   -0.207358 
3   -0.150839 
4   0.250163 
5   0.365362 
6   0.54862 
7   0.678038 
8   -0.643321 
9   -0.292872 
10   -0.474725 
11   0.330063 
12   -0.601977 
13   -0.401154 
14   -0.393332 
15   -0.496978 
16   0.166857 
17   0.188253 
18   0.16587 
19   0.17143 
20   0.195586 
21   0.309644 
22   0.383246 
23   0.428274 
 
>  <lowdin_charges> 
23 
1   -0.438032 
2   -0.192225 
3   -0.148141 
4   -0.006725 
5   0.084287 
6   0.069323 
7   0.155662 
8   -0.452997 
9   -0.076364 
10   -0.188941 
11   0.30335 
12   -0.368216 
13   -0.252478 
14   -0.241652 
15   -0.078698 
16   0.161413 
17   0.179271 
18   0.162108 
19   0.185587 
20   0.200022 
21   0.272017 
22   0.296487 
23   0.37494 
 
$$$$ 
 
