PCCDB-ID:  68138 
public computational chemistry database (PCCDB) project, http://pccdb.org 
 
 19 19  0  0  0  0  0  0  0  0999 V2000 
    0.8933   -0.0328    0.0661 C   0  0  0  0  0  0  0  0  0  0  0  0 
    5.1968   -0.0279   -0.4549 C   0  0  0  0  0  0  0  0  0  0  0  0 
    4.5012   -1.2269   -0.3427 C   0  0  0  0  0  0  0  0  0  0  0  0 
    3.1084    1.1743   -0.2297 C   0  0  0  0  0  0  0  0  0  0  0  0 
    2.3895   -0.0105   -0.1155 C   0  0  0  0  0  0  0  0  0  0  0  0 
    4.5023    1.1864   -0.3997 C   0  0  0  0  0  0  0  0  0  0  0  0 
    3.1123   -1.2194   -0.1751 C   0  0  0  0  0  0  0  0  0  0  0  0 
    5.1812    2.4957   -0.5123 C   0  0  0  0  0  0  0  0  0  0  0  0 
    2.3884   -2.3710   -0.0613 O   0  0  0  0  0  0  0  0  0  0  0  0 
    6.5279    2.3873   -0.6844 O   0  0  0  0  0  0  0  0  0  0  0  0 
    4.6313    3.5798   -0.4623 O   0  0  0  0  0  0  0  0  0  0  0  0 
    0.4924    0.9839    0.1070 H   0  0  0  0  0  0  0  0  0  0  0  0 
    0.6121   -0.5533    0.9892 H   0  0  0  0  0  0  0  0  0  0  0  0 
    0.4002   -0.5661   -0.7555 H   0  0  0  0  0  0  0  0  0  0  0  0 
    6.2730   -0.0320   -0.5849 H   0  0  0  0  0  0  0  0  0  0  0  0 
    5.0345   -2.1750   -0.3851 H   0  0  0  0  0  0  0  0  0  0  0  0 
    2.5897    2.1273   -0.1876 H   0  0  0  0  0  0  0  0  0  0  0  0 
    2.9890   -3.1310   -0.1145 H   0  0  0  0  0  0  0  0  0  0  0  0 
    6.8540    3.3040   -0.7421 H   0  0  0  0  0  0  0  0  0  0  0  0 
  1 12  1  0  0  0  0 
  1 13  1  0  0  0  0 
  2  6  2  0  0  0  0 
  2  3  1  0  0  0  0 
  3  7  2  0  0  0  0 
  4 17  1  0  0  0  0 
  4  5  2  0  0  0  0 
  5  1  1  0  0  0  0 
  6  4  1  0  0  0  0 
  7  5  1  0  0  0  0 
  7  9  1  0  0  0  0 
  8 11  2  0  0  0  0 
  8  6  1  0  0  0  0 
 10  8  1  0  0  0  0 
 14  1  1  0  0  0  0 
 15  2  1  0  0  0  0 
 16  3  1  0  0  0  0 
 18  9  1  0  0  0  0 
 19 10  1  0  0  0  0 
M  END 
>  <HBA> 
3 
 
>  <HBD> 
2 
 
>  <TPSA> 
57.53 
 
>  <cid> 
68138 
 
>  <dipole> 
3.21 
 
>  <excitation_energy_1> 
4.804 
 
>  <excitation_energy_2> 
4.987 
 
>  <excitation_energy_3> 
5.0 
 
>  <excitation_energy_4> 
5.37 
 
>  <homo_energy> 
-6.275 
 
>  <homo_lumo_gap> 
5.301 
 
>  <logP> 
1.399 
 
>  <lumo_energy> 
-0.974 
 
>  <melting_point> 
140.46 
 
>  <molecular_refractivity> 
40.39 
 
>  <oscillator_strength_1> 
0.0628 
 
>  <oscillator_strength_2> 
0.2125 
 
>  <oscillator_strength_3> 
0.0114 
 
>  <oscillator_strength_4> 
0.0 
 
>  <open_babel_can_smiles> 
OC(=O)c1ccc(c(c1)C)O 
 
>  <mulliken_charges> 
19 
1   -0.514621 
2   -0.173032 
3   -0.195043 
4   -0.231435 
5   0.140172 
6   0.077989 
7   0.307353 
8   0.532779 
9   -0.632835 
10   -0.589861 
11   -0.482081 
12   0.156818 
13   0.169106 
14   0.168975 
15   0.160689 
16   0.124333 
17   0.159149 
18   0.412292 
19   0.409254 
 
>  <lowdin_charges> 
19 
1   -0.436953 
2   -0.128488 
3   -0.213909 
4   -0.130465 
5   -0.026116 
6   -0.068042 
7   0.108372 
8   0.197331 
9   -0.367725 
10   -0.369259 
11   -0.281774 
12   0.158689 
13   0.165518 
14   0.16617 
15   0.172711 
16   0.155948 
17   0.175981 
18   0.361765 
19   0.360246 
 
$$$$ 
 
