PCCDB-ID:  54149 
public computational chemistry database (PCCDB) project, http://pccdb.org 
 
 28 29  0  0  0  0  0  0  0  0999 V2000 
   -1.4388   -0.8345    0.6844 C   0  0  0  0  0  0  0  0  0  0  0  0 
   -1.3105    0.1648   -0.2827 C   0  0  0  0  0  0  0  0  0  0  0  0 
   -0.3011   -1.4908    1.1592 C   0  0  0  0  0  0  0  0  0  0  0  0 
    4.4874    5.3717   -1.4224 C   0  0  0  0  0  0  0  0  0  0  0  0 
   -0.0516    0.5155   -0.7687 C   0  0  0  0  0  0  0  0  0  0  0  0 
    0.9589   -1.1475    0.6731 C   0  0  0  0  0  0  0  0  0  0  0  0 
    4.2692    3.8417   -1.4858 C   0  0  0  0  0  0  0  0  0  0  0  0 
    3.2493    5.9027   -0.6309 C   0  0  0  0  0  0  0  0  0  0  0  0 
    1.1011   -0.1344   -0.2922 C   0  0  0  0  0  0  0  0  0  0  0  0 
    2.9214    3.7038   -0.8125 C   0  0  0  0  0  0  0  0  0  0  0  0 
    2.4534    0.1971   -0.8118 C   0  0  0  0  0  0  0  0  0  0  0  0 
    2.3707    4.7646   -0.3502 N   0  0  0  0  0  0  0  0  0  0  0  0 
    2.2900    2.4812   -0.7225 N   0  0  0  0  0  0  0  0  0  0  0  0 
    2.9775    1.3449   -1.0296 N   0  0  0  0  0  0  0  0  0  0  0  0 
    3.2930   -0.8700   -1.0343 O   0  0  0  0  0  0  0  0  0  0  0  0 
   -2.4209   -1.1015    1.0647 H   0  0  0  0  0  0  0  0  0  0  0  0 
   -2.1932    0.6705   -0.6638 H   0  0  0  0  0  0  0  0  0  0  0  0 
   -0.3948   -2.2686    1.9122 H   0  0  0  0  0  0  0  0  0  0  0  0 
    4.5331    5.8066   -2.4257 H   0  0  0  0  0  0  0  0  0  0  0  0 
    5.4258    5.6235   -0.9195 H   0  0  0  0  0  0  0  0  0  0  0  0 
    0.0404    1.2766   -1.5377 H   0  0  0  0  0  0  0  0  0  0  0  0 
    1.8454   -1.6501    1.0498 H   0  0  0  0  0  0  0  0  0  0  0  0 
    5.0288    3.2658   -0.9455 H   0  0  0  0  0  0  0  0  0  0  0  0 
    4.2482    3.4390   -2.5042 H   0  0  0  0  0  0  0  0  0  0  0  0 
    2.6946    6.6611   -1.1991 H   0  0  0  0  0  0  0  0  0  0  0  0 
    3.5412    6.3780    0.3155 H   0  0  0  0  0  0  0  0  0  0  0  0 
    1.4606    2.4474   -0.1344 H   0  0  0  0  0  0  0  0  0  0  0  0 
    2.7433   -1.6487   -1.2155 H   0  0  0  0  0  0  0  0  0  0  0  0 
  1 16  1  0  0  0  0 
  1  3  1  0  0  0  0 
  2  1  2  0  0  0  0 
  3 18  1  0  0  0  0 
  4 20  1  0  0  0  0 
  4  8  1  0  0  0  0 
  5  9  2  0  0  0  0 
  5  2  1  0  0  0  0 
  6 22  1  0  0  0  0 
  6  3  2  0  0  0  0 
  7  4  1  0  0  0  0 
  7 23  1  0  0  0  0 
  7 10  1  0  0  0  0 
  8 12  1  0  0  0  0 
  8 26  1  0  0  0  0 
  9  6  1  0  0  0  0 
 10 13  1  0  0  0  0 
 10 12  2  0  0  0  0 
 11  9  1  0  0  0  0 
 13 27  1  0  0  0  0 
 14 11  2  0  0  0  0 
 14 13  1  0  0  0  0 
 15 11  1  0  0  0  0 
 17  2  1  0  0  0  0 
 19  4  1  0  0  0  0 
 21  5  1  0  0  0  0 
 24  7  1  0  0  0  0 
 25  8  1  0  0  0  0 
 28 15  1  0  0  0  0 
M  END 
>  <HBA> 
4 
 
>  <HBD> 
2 
 
>  <TPSA> 
53.49 
 
>  <cid> 
54149 
 
>  <dipole> 
3.62 
 
>  <excitation_energy_1> 
3.47 
 
>  <excitation_energy_2> 
3.835 
 
>  <excitation_energy_3> 
4.649 
 
>  <excitation_energy_4> 
4.847 
 
>  <homo_energy> 
-5.206 
 
>  <homo_lumo_gap> 
4.079 
 
>  <logP> 
1.331 
 
>  <lumo_energy> 
-1.127 
 
>  <melting_point> 
131.02 
 
>  <molecular_refractivity> 
61.56 
 
>  <oscillator_strength_1> 
0.1776 
 
>  <oscillator_strength_2> 
0.0106 
 
>  <oscillator_strength_3> 
0.0072 
 
>  <oscillator_strength_4> 
0.0006 
 
>  <open_babel_can_smiles> 
O/C(=N/NC1=NCCC1)/c1ccccc1 
 
>  <mulliken_charges> 
28 
1   -0.122151 
2   -0.131399 
3   -0.12969 
4   -0.307039 
5   -0.18156 
6   -0.178052 
7   -0.326592 
8   -0.133859 
9   0.046887 
10   0.516718 
11   0.412683 
12   -0.480469 
13   -0.50126 
14   -0.271452 
15   -0.592971 
16   0.141825 
17   0.144965 
18   0.142262 
19   0.144236 
20   0.143438 
21   0.166653 
22   0.151193 
23   0.171484 
24   0.166354 
25   0.137492 
26   0.138162 
27   0.327321 
28   0.404823 
 
>  <lowdin_charges> 
28 
1   -0.146584 
2   -0.150071 
3   -0.148795 
4   -0.296206 
5   -0.159132 
6   -0.161801 
7   -0.298019 
8   -0.204368 
9   -0.050319 
10   0.079978 
11   0.086725 
12   -0.248366 
13   -0.188706 
14   -0.114371 
15   -0.376016 
16   0.163497 
17   0.165894 
18   0.164009 
19   0.147963 
20   0.149111 
21   0.172938 
22   0.167923 
23   0.16747 
24   0.163086 
25   0.141394 
26   0.140133 
27   0.275904 
28   0.35673 
 
$$$$ 
 
