PCCDB-ID:  10602 
public computational chemistry database (PCCDB) project, http://pccdb.org 
 
 11 10  0  0  0  0  0  0  0  0999 V2000 
    1.2362    0.8637   -0.0934 C   0  0  0  0  0  0  0  0  0  0  0  0 
    0.6447    1.7399    0.9942 N   0  0  0  0  0  0  0  0  0  0  0  0 
    0.3590    0.9290   -1.3292 N   0  0  0  0  0  0  0  0  0  0  0  0 
    2.6317    1.3500   -0.4351 N   0  0  0  0  0  0  0  0  0  0  0  0 
    1.0768    1.4929    2.1085 O   0  0  0  0  0  0  0  0  0  0  0  0 
   -0.1594    2.5901    0.6600 O   0  0  0  0  0  0  0  0  0  0  0  0 
    0.7313    1.6311   -2.2508 O   0  0  0  0  0  0  0  0  0  0  0  0 
   -0.6600    0.2633   -1.2392 O   0  0  0  0  0  0  0  0  0  0  0  0 
    2.9403    2.4747   -0.0875 O   0  0  0  0  0  0  0  0  0  0  0  0 
    3.2930    0.5336   -1.0560 O   0  0  0  0  0  0  0  0  0  0  0  0 
    1.2883   -0.1618    0.2582 H   0  0  0  0  0  0  0  0  0  0  0  0 
  1 11  1  0  0  0  0 
  1  2  1  0  0  0  0 
  2  5  2  0  0  0  0 
  3  8  2  0  0  0  0 
  3  1  1  0  0  0  0 
  4  1  1  0  0  0  0 
  4  9  2  0  0  0  0 
  6  2  2  0  0  0  0 
  7  3  2  0  0  0  0 
 10  4  2  0  0  0  0 
M  END 
>  <HBA> 
0 
 
>  <HBD> 
0 
 
>  <TPSA> 
137.46 
 
>  <cid> 
10602 
 
>  <dipole> 
2.23 
 
>  <excitation_energy_1> 
4.091 
 
>  <excitation_energy_2> 
4.092 
 
>  <excitation_energy_3> 
4.098 
 
>  <excitation_energy_4> 
4.278 
 
>  <homo_energy> 
-9.47 
 
>  <homo_lumo_gap> 
5.831 
 
>  <logP> 
0.67 
 
>  <lumo_energy> 
-3.638 
 
>  <melting_point> 
69.03 
 
>  <molecular_refractivity> 
31.24 
 
>  <oscillator_strength_1> 
0.0004 
 
>  <oscillator_strength_2> 
0.0004 
 
>  <oscillator_strength_3> 
0.0001 
 
>  <oscillator_strength_4> 
0.0001 
 
>  <open_babel_can_smiles> 
O=N(=O)C(N(=O)=O)N(=O)=O 
 
>  <mulliken_charges> 
11 
1   0.21314 
2   0.488864 
3   0.48907 
4   0.488428 
5   -0.335195 
6   -0.314714 
7   -0.314531 
8   -0.335085 
9   -0.314656 
10   -0.334488 
11   0.269167 
 
>  <lowdin_charges> 
11 
1   -0.013251 
2   0.292426 
3   0.29337 
4   0.294674 
5   -0.186642 
6   -0.17602 
7   -0.176303 
8   -0.187341 
9   -0.174946 
10   -0.188788 
11   0.222821 
 
$$$$ 
 
