PCCDB-ID:  8359 
public computational chemistry database (PCCDB) project, http://pccdb.org 
 
 17 18  0  0  0  0  0  0  0  0999 V2000 
   -2.4091    0.6492   -0.0098 C   0  0  0  0  0  0  0  0  0  0  0  0 
   -2.3658   -0.7554   -0.0342 C   0  0  0  0  0  0  0  0  0  0  0  0 
   -1.2263    1.3727    0.0096 C   0  0  0  0  0  0  0  0  0  0  0  0 
   -1.1542   -1.4336   -0.0374 C   0  0  0  0  0  0  0  0  0  0  0  0 
    0.0045    0.6971    0.0052 C   0  0  0  0  0  0  0  0  0  0  0  0 
    0.0523   -0.7148   -0.0175 C   0  0  0  0  0  0  0  0  0  0  0  0 
    1.2517    1.4552    0.0288 C   0  0  0  0  0  0  0  0  0  0  0  0 
    2.3260   -0.6857   -0.0038 C   0  0  0  0  0  0  0  0  0  0  0  0 
    1.2610   -1.4027   -0.0206 N   0  0  0  0  0  0  0  0  0  0  0  0 
    1.4044    2.6467    0.0549 O   0  0  0  0  0  0  0  0  0  0  0  0 
    3.5451   -1.2261   -0.0060 O   0  0  0  0  0  0  0  0  0  0  0  0 
    2.4230    0.6535    0.0177 O   0  0  0  0  0  0  0  0  0  0  0  0 
   -3.3647    1.1645   -0.0068 H   0  0  0  0  0  0  0  0  0  0  0  0 
   -3.2938   -1.3206   -0.0505 H   0  0  0  0  0  0  0  0  0  0  0  0 
   -1.2231    2.4577    0.0290 H   0  0  0  0  0  0  0  0  0  0  0  0 
   -1.1097   -2.5177   -0.0558 H   0  0  0  0  0  0  0  0  0  0  0  0 
    3.4108   -2.1908   -0.0211 H   0  0  0  0  0  0  0  0  0  0  0  0 
  1 13  1  0  0  0  0 
  1  3  2  0  0  0  0 
  2  1  1  0  0  0  0 
  3 15  1  0  0  0  0 
  4  2  2  0  0  0  0 
  4  6  1  0  0  0  0 
  5  3  1  0  0  0  0 
  5  7  1  0  0  0  0 
  6  5  2  0  0  0  0 
  7 10  2  0  0  0  0 
  8 12  1  0  0  0  0 
  9  6  1  0  0  0  0 
  9  8  2  0  0  0  0 
 11  8  1  0  0  0  0 
 12  7  1  0  0  0  0 
 14  2  1  0  0  0  0 
 16  4  1  0  0  0  0 
 17 11  1  0  0  0  0 
M  END 
>  <HBA> 
3 
 
>  <HBD> 
1 
 
>  <TPSA> 
63.07 
 
>  <cid> 
8359 
 
>  <dipole> 
3.91 
 
>  <excitation_energy_1> 
4.218 
 
>  <excitation_energy_2> 
4.983 
 
>  <excitation_energy_3> 
4.996 
 
>  <excitation_energy_4> 
5.457 
 
>  <homo_energy> 
-6.544 
 
>  <homo_lumo_gap> 
4.884 
 
>  <logP> 
0.481 
 
>  <lumo_energy> 
-1.66 
 
>  <melting_point> 
165.04 
 
>  <molecular_refractivity> 
43.1 
 
>  <oscillator_strength_1> 
0.0771 
 
>  <oscillator_strength_2> 
0.0002 
 
>  <oscillator_strength_3> 
0.0418 
 
>  <oscillator_strength_4> 
0.0 
 
>  <open_babel_can_smiles> 
Oc1nc2ccccc2c(=O)o1 
 
>  <mulliken_charges> 
17 
1   -0.136597 
2   -0.123733 
3   -0.169716 
4   -0.163419 
5   0.04602 
6   0.258468 
7   0.570314 
8   0.704085 
9   -0.564712 
10   -0.439617 
11   -0.566626 
12   -0.455969 
13   0.14391 
14   0.145143 
15   0.17076 
16   0.148178 
17   0.433511 
 
>  <lowdin_charges> 
17 
1   -0.162565 
2   -0.127894 
3   -0.116288 
4   -0.161505 
5   -0.080874 
6   0.063238 
7   0.207267 
8   0.209315 
9   -0.233899 
10   -0.21273 
11   -0.31354 
12   -0.12744 
13   0.16563 
14   0.166157 
15   0.178024 
16   0.16964 
17   0.377463 
 
$$$$ 
 
