PCCDB-ID:  15592 
public computational chemistry database (PCCDB) project, http://pccdb.org 
 
 20 21  0  0  0  0  0  0  0  0999 V2000 
    0.9643    0.0537   -0.2481 C   0  0  0  0  0  0  0  0  0  0  0  0 
    4.6264   -3.6618    0.0805 C   0  0  0  0  0  0  0  0  0  0  0  0 
    3.2197   -3.6890   -0.0747 C   0  0  0  0  0  0  0  0  0  0  0  0 
    5.2918   -2.4606    0.1798 C   0  0  0  0  0  0  0  0  0  0  0  0 
    2.5022   -2.5136   -0.1284 C   0  0  0  0  0  0  0  0  0  0  0  0 
    5.2119    0.0323    0.2217 C   0  0  0  0  0  0  0  0  0  0  0  0 
    4.4416    1.1663    0.1592 C   0  0  0  0  0  0  0  0  0  0  0  0 
    2.4643   -0.0013   -0.0816 C   0  0  0  0  0  0  0  0  0  0  0  0 
    4.5788   -1.2340    0.1270 C   0  0  0  0  0  0  0  0  0  0  0  0 
    3.1581   -1.2580   -0.0295 C   0  0  0  0  0  0  0  0  0  0  0  0 
    3.0888    1.1599    0.0101 N   0  0  0  0  0  0  0  0  0  0  0  0 
    0.4462   -0.4557    0.5742 H   0  0  0  0  0  0  0  0  0  0  0  0 
    0.6429   -0.4273   -1.1805 H   0  0  0  0  0  0  0  0  0  0  0  0 
    0.6498    1.0986   -0.2665 H   0  0  0  0  0  0  0  0  0  0  0  0 
    5.1800   -4.5960    0.1216 H   0  0  0  0  0  0  0  0  0  0  0  0 
    2.7062   -4.6433   -0.1529 H   0  0  0  0  0  0  0  0  0  0  0  0 
    6.3722   -2.4347    0.2994 H   0  0  0  0  0  0  0  0  0  0  0  0 
    1.4239   -2.5455   -0.2473 H   0  0  0  0  0  0  0  0  0  0  0  0 
    6.2902    0.0955    0.3415 H   0  0  0  0  0  0  0  0  0  0  0  0 
    4.8959    2.1525    0.2295 H   0  0  0  0  0  0  0  0  0  0  0  0 
  1  8  1  0  0  0  0 
  1 12  1  0  0  0  0 
  2 15  1  0  0  0  0 
  2  4  2  0  0  0  0 
  3  2  1  0  0  0  0 
  4 17  1  0  0  0  0 
  5  3  2  0  0  0  0 
  5 10  1  0  0  0  0 
  6 19  1  0  0  0  0 
  7  6  1  0  0  0  0 
  7 20  1  0  0  0  0 
  8 10  2  0  0  0  0 
  8 11  1  0  0  0  0 
  9  4  1  0  0  0  0 
  9  6  2  0  0  0  0 
 10  9  1  0  0  0  0 
 11  7  2  0  0  0  0 
 13  1  1  0  0  0  0 
 14  1  1  0  0  0  0 
 16  3  1  0  0  0  0 
 18  5  1  0  0  0  0 
M  END 
>  <HBA> 
1 
 
>  <HBD> 
0 
 
>  <TPSA> 
12.89 
 
>  <cid> 
15592 
 
>  <dipole> 
2.22 
 
>  <excitation_energy_1> 
4.262 
 
>  <excitation_energy_2> 
4.289 
 
>  <excitation_energy_3> 
4.596 
 
>  <excitation_energy_4> 
5.054 
 
>  <homo_energy> 
-6.068 
 
>  <homo_lumo_gap> 
4.767 
 
>  <logP> 
2.543 
 
>  <lumo_energy> 
-1.301 
 
>  <melting_point> 
67.99 
 
>  <molecular_refractivity> 
46.71 
 
>  <oscillator_strength_1> 
0.0809 
 
>  <oscillator_strength_2> 
0.0013 
 
>  <oscillator_strength_3> 
0.0217 
 
>  <oscillator_strength_4> 
0.001 
 
>  <open_babel_can_smiles> 
Cc1nccc2c1cccc2 
 
>  <mulliken_charges> 
20 
1   -0.522204 
2   -0.129594 
3   -0.131647 
4   -0.184104 
5   -0.196123 
6   -0.198384 
7   0.023058 
8   0.263366 
9   0.15139 
10   0.08735 
11   -0.476137 
12   0.160805 
13   0.160687 
14   0.180527 
15   0.135983 
16   0.134425 
17   0.134686 
18   0.136978 
19   0.131494 
20   0.137444 
 
>  <lowdin_charges> 
20 
1   -0.451904 
2   -0.147474 
3   -0.157249 
4   -0.154518 
5   -0.148683 
6   -0.177973 
7   -0.098541 
8   0.061573 
9   0.013185 
10   -0.029139 
11   -0.163254 
12   0.162047 
13   0.161217 
14   0.172772 
15   0.161487 
16   0.160697 
17   0.158261 
18   0.161602 
19   0.159824 
20   0.156067 
 
$$$$ 
 
