PCCDB-ID:  70203 
public computational chemistry database (PCCDB) project, http://pccdb.org 
 
 14 13  0  0  0  0  0  0  0  0999 V2000 
    1.2624   -0.7773    0.0865 C   0  0  0  0  0  0  0  0  0  0  0  0 
    1.3898    2.6963   -0.3916 C   0  0  0  0  0  0  0  0  0  0  0  0 
    2.2892    0.3486   -0.1319 C   0  0  0  0  0  0  0  0  0  0  0  0 
    1.5307    1.3290   -2.3769 C   0  0  0  0  0  0  0  0  0  0  0  0 
    1.7285    1.5093   -0.9175 C   0  0  0  0  0  0  0  0  0  0  0  0 
    1.8163    0.3181   -2.9906 O   0  0  0  0  0  0  0  0  0  0  0  0 
    1.7116   -1.5997    0.6541 H   0  0  0  0  0  0  0  0  0  0  0  0 
    0.9160   -1.1757   -0.8714 H   0  0  0  0  0  0  0  0  0  0  0  0 
    0.3922   -0.4140    0.6447 H   0  0  0  0  0  0  0  0  0  0  0  0 
    1.5135    2.9195    0.6648 H   0  0  0  0  0  0  0  0  0  0  0  0 
    0.9754    3.4902   -1.0100 H   0  0  0  0  0  0  0  0  0  0  0  0 
    3.1488   -0.0590   -0.6773 H   0  0  0  0  0  0  0  0  0  0  0  0 
    2.6563    0.7109    0.8354 H   0  0  0  0  0  0  0  0  0  0  0  0 
    1.0972    2.2103   -2.9008 H   0  0  0  0  0  0  0  0  0  0  0  0 
  1  9  1  0  0  0  0 
  1  7  1  0  0  0  0 
  2 10  1  0  0  0  0 
  3  1  1  0  0  0  0 
  3 13  1  0  0  0  0 
  4  5  1  0  0  0  0 
  5  2  2  0  0  0  0 
  5  3  1  0  0  0  0 
  6  4  2  0  0  0  0 
  8  1  1  0  0  0  0 
 11  2  1  0  0  0  0 
 12  3  1  0  0  0  0 
 14  4  1  0  0  0  0 
M  END 
>  <HBA> 
1 
 
>  <HBD> 
0 
 
>  <TPSA> 
17.07 
 
>  <cid> 
70203 
 
>  <dipole> 
2.76 
 
>  <excitation_energy_1> 
3.678 
 
>  <excitation_energy_2> 
5.776 
 
>  <excitation_energy_3> 
6.473 
 
>  <excitation_energy_4> 
6.557 
 
>  <homo_energy> 
-6.934 
 
>  <homo_lumo_gap> 
5.325 
 
>  <logP> 
1.151 
 
>  <lumo_energy> 
-1.608 
 
>  <melting_point> 
-11.35 
 
>  <molecular_refractivity> 
25.88 
 
>  <oscillator_strength_1> 
0.0002 
 
>  <oscillator_strength_2> 
0.2701 
 
>  <oscillator_strength_3> 
0.0011 
 
>  <oscillator_strength_4> 
0.0002 
 
>  <open_babel_can_smiles> 
CCC(=C)C=O 
 
>  <mulliken_charges> 
14 
1   -0.447503 
2   -0.387197 
3   -0.32243 
4   0.201761 
5   0.171484 
6   -0.405121 
7   0.148121 
8   0.172813 
9   0.144042 
10   0.159351 
11   0.15777 
12   0.164646 
13   0.139641 
14   0.102623 
 
>  <lowdin_charges> 
14 
1   -0.443567 
2   -0.298626 
3   -0.270018 
4   0.042805 
5   -0.031241 
6   -0.22724 
7   0.153911 
8   0.162058 
9   0.148371 
10   0.166128 
11   0.166001 
12   0.163404 
13   0.148898 
14   0.119115 
 
$$$$ 
 
