PCCDB-ID:  36679 
public computational chemistry database (PCCDB) project, http://pccdb.org 
 
 33 33  0  0  0  0  0  0  0  0999 V2000 
    2.0502    0.3559   -1.0726 C   0  0  0  0  0  0  0  0  0  0  0  0 
    1.6877    1.5995    1.1101 C   0  0  0  0  0  0  0  0  0  0  0  0 
    4.8757   -6.3388    4.5905 C   0  0  0  0  0  0  0  0  0  0  0  0 
    2.6104   -7.2399    5.0756 C   0  0  0  0  0  0  0  0  0  0  0  0 
    1.8141   -1.5322    1.4485 C   0  0  0  0  0  0  0  0  0  0  0  0 
    4.1448   -1.0118    1.5203 C   0  0  0  0  0  0  0  0  0  0  0  0 
    2.0295   -2.7127    2.1569 C   0  0  0  0  0  0  0  0  0  0  0  0 
    4.3842   -2.1856    2.2294 C   0  0  0  0  0  0  0  0  0  0  0  0 
    2.6046    0.6316    0.3381 C   0  0  0  0  0  0  0  0  0  0  0  0 
    2.8548   -0.6554    1.1118 C   0  0  0  0  0  0  0  0  0  0  0  0 
    3.3313   -3.0526    2.5576 C   0  0  0  0  0  0  0  0  0  0  0  0 
    2.8047   -5.2006    3.7577 C   0  0  0  0  0  0  0  0  0  0  0  0 
    3.6624   -4.2247    3.2693 N   0  0  0  0  0  0  0  0  0  0  0  0 
    3.4402   -6.2679    4.3771 N   0  0  0  0  0  0  0  0  0  0  0  0 
    1.5832   -5.1411    3.6443 O   0  0  0  0  0  0  0  0  0  0  0  0 
    1.9279    1.2912   -1.6323 H   0  0  0  0  0  0  0  0  0  0  0  0 
    1.0700   -0.1336   -1.0247 H   0  0  0  0  0  0  0  0  0  0  0  0 
    2.7206   -0.2983   -1.6406 H   0  0  0  0  0  0  0  0  0  0  0  0 
    1.5685    2.5421    0.5621 H   0  0  0  0  0  0  0  0  0  0  0  0 
    2.0976    1.8281    2.1000 H   0  0  0  0  0  0  0  0  0  0  0  0 
    0.6889    1.1706    1.2546 H   0  0  0  0  0  0  0  0  0  0  0  0 
    5.2422   -5.5963    5.3170 H   0  0  0  0  0  0  0  0  0  0  0  0 
    5.4295   -6.2195    3.6504 H   0  0  0  0  0  0  0  0  0  0  0  0 
    5.1219   -7.3296    4.9793 H   0  0  0  0  0  0  0  0  0  0  0  0 
    2.9178   -8.2585    4.8107 H   0  0  0  0  0  0  0  0  0  0  0  0 
    1.5762   -7.0837    4.7737 H   0  0  0  0  0  0  0  0  0  0  0  0 
    2.6847   -7.1253    6.1669 H   0  0  0  0  0  0  0  0  0  0  0  0 
    0.7947   -1.2947    1.1529 H   0  0  0  0  0  0  0  0  0  0  0  0 
    4.9826   -0.3597    1.2822 H   0  0  0  0  0  0  0  0  0  0  0  0 
    1.2094   -3.3703    2.4068 H   0  0  0  0  0  0  0  0  0  0  0  0 
    5.4010   -2.4306    2.5332 H   0  0  0  0  0  0  0  0  0  0  0  0 
    3.5771    1.1291    0.2162 H   0  0  0  0  0  0  0  0  0  0  0  0 
    4.6466   -4.3214    3.4650 H   0  0  0  0  0  0  0  0  0  0  0  0 
  1 17  1  0  0  0  0 
  1  9  1  0  0  0  0 
  2 21  1  0  0  0  0 
  2 20  1  0  0  0  0 
  3 24  1  0  0  0  0 
  3 22  1  0  0  0  0 
  4 27  1  0  0  0  0 
  5  7  1  0  0  0  0 
  6  8  2  0  0  0  0 
  7 30  1  0  0  0  0 
  7 11  2  0  0  0  0 
  8 31  1  0  0  0  0 
  8 11  1  0  0  0  0 
  9  2  1  0  0  0  0 
  9 10  1  0  0  0  0 
 10  5  2  0  0  0  0 
 10  6  1  0  0  0  0 
 11 13  1  0  0  0  0 
 12 14  1  0  0  0  0 
 13 33  1  0  0  0  0 
 13 12  1  0  0  0  0 
 14  3  1  0  0  0  0 
 14  4  1  0  0  0  0 
 15 12  2  0  0  0  0 
 16  1  1  0  0  0  0 
 18  1  1  0  0  0  0 
 19  2  1  0  0  0  0 
 23  3  1  0  0  0  0 
 25  4  1  0  0  0  0 
 26  4  1  0  0  0  0 
 28  5  1  0  0  0  0 
 29  6  1  0  0  0  0 
 32  9  1  0  0  0  0 
M  END 
>  <HBA> 
3 
 
>  <HBD> 
1 
 
>  <TPSA> 
32.34 
 
>  <cid> 
36679 
 
>  <dipole> 
4.01 
 
>  <excitation_energy_1> 
4.727 
 
>  <excitation_energy_2> 
4.798 
 
>  <excitation_energy_3> 
5.157 
 
>  <excitation_energy_4> 
5.326 
 
>  <homo_energy> 
-5.494 
 
>  <homo_lumo_gap> 
5.69 
 
>  <logP> 
2.977 
 
>  <lumo_energy> 
0.196 
 
>  <melting_point> 
74.41 
 
>  <molecular_refractivity> 
63.43 
 
>  <oscillator_strength_1> 
0.0022 
 
>  <oscillator_strength_2> 
0.035 
 
>  <oscillator_strength_3> 
0.4927 
 
>  <oscillator_strength_4> 
0.0027 
 
>  <open_babel_can_smiles> 
O=C(N(C)C)Nc1ccc(cc1)C(C)C 
 
>  <mulliken_charges> 
33 
1   -0.437137 
2   -0.43748 
3   -0.337386 
4   -0.318844 
5   -0.206326 
6   -0.203714 
7   -0.160906 
8   -0.203287 
9   -0.1598 
10   0.194188 
11   0.36536 
12   0.799184 
13   -0.770243 
14   -0.443365 
15   -0.541976 
16   0.138017 
17   0.144008 
18   0.147336 
19   0.138026 
20   0.147699 
21   0.144093 
22   0.159366 
23   0.164411 
24   0.174485 
25   0.14912 
26   0.209725 
27   0.148911 
28   0.125182 
29   0.119431 
30   0.185209 
31   0.111448 
32   0.12419 
33   0.331075 
 
>  <lowdin_charges> 
33 
1   -0.443279 
2   -0.440926 
3   -0.360686 
4   -0.349128 
5   -0.155766 
6   -0.165538 
7   -0.183294 
8   -0.195908 
9   -0.117037 
10   -0.015362 
11   0.062993 
12   0.185868 
13   -0.256461 
14   -0.13209 
15   -0.333833 
16   0.14668 
17   0.147329 
18   0.153064 
19   0.146543 
20   0.151384 
21   0.147159 
22   0.146774 
23   0.153824 
24   0.168679 
25   0.146561 
26   0.186078 
27   0.140922 
28   0.153938 
29   0.153901 
30   0.188781 
31   0.146993 
32   0.139242 
33   0.282594 
 
$$$$ 
 
