PCCDB-ID:  26808 
public computational chemistry database (PCCDB) project, http://pccdb.org 
 
 19 19  0  0  0  0  0  0  0  0999 V2000 
    1.0649    0.0126    0.0725 C   0  0  0  0  0  0  0  0  0  0  0  0 
    6.7871    0.2386    0.0462 C   0  0  0  0  0  0  0  0  0  0  0  0 
    5.2018   -2.4772    0.0599 C   0  0  0  0  0  0  0  0  0  0  0  0 
    3.2904    1.2527    0.0582 C   0  0  0  0  0  0  0  0  0  0  0  0 
    2.5707    0.0521    0.0652 C   0  0  0  0  0  0  0  0  0  0  0  0 
    5.2814    0.1128    0.0522 C   0  0  0  0  0  0  0  0  0  0  0  0 
    4.5674   -1.1055    0.0590 C   0  0  0  0  0  0  0  0  0  0  0  0 
    4.6209    1.2833    0.0517 N   0  0  0  0  0  0  0  0  0  0  0  0 
    3.2242   -1.1146    0.0653 N   0  0  0  0  0  0  0  0  0  0  0  0 
    0.6370    1.0198    0.0644 H   0  0  0  0  0  0  0  0  0  0  0  0 
    0.6978   -0.5139    0.9608 H   0  0  0  0  0  0  0  0  0  0  0  0 
    0.6899   -0.5320   -0.8014 H   0  0  0  0  0  0  0  0  0  0  0  0 
    7.3060   -0.7206    0.0320 H   0  0  0  0  0  0  0  0  0  0  0  0 
    7.1173    0.7946    0.9310 H   0  0  0  0  0  0  0  0  0  0  0  0 
    7.1075    0.8161   -0.8283 H   0  0  0  0  0  0  0  0  0  0  0  0 
    6.2921   -2.4540    0.0526 H   0  0  0  0  0  0  0  0  0  0  0  0 
    4.8628   -3.0428   -0.8152 H   0  0  0  0  0  0  0  0  0  0  0  0 
    4.8750   -3.0362    0.9440 H   0  0  0  0  0  0  0  0  0  0  0  0 
    2.7765    2.2132    0.0576 H   0  0  0  0  0  0  0  0  0  0  0  0 
  1 11  1  0  0  0  0 
  2  6  1  0  0  0  0 
  2 14  1  0  0  0  0 
  3 18  1  0  0  0  0 
  4  5  2  0  0  0  0 
  5  9  1  0  0  0  0 
  5  1  1  0  0  0  0 
  6  7  1  0  0  0  0 
  7  3  1  0  0  0  0 
  7  9  2  0  0  0  0 
  8  6  2  0  0  0  0 
  8  4  1  0  0  0  0 
 10  1  1  0  0  0  0 
 12  1  1  0  0  0  0 
 13  2  1  0  0  0  0 
 15  2  1  0  0  0  0 
 16  3  1  0  0  0  0 
 17  3  1  0  0  0  0 
 19  4  1  0  0  0  0 
M  END 
>  <HBA> 
2 
 
>  <HBD> 
0 
 
>  <TPSA> 
25.78 
 
>  <cid> 
26808 
 
>  <dipole> 
0.5 
 
>  <excitation_energy_1> 
3.981 
 
>  <excitation_energy_2> 
4.889 
 
>  <excitation_energy_3> 
4.911 
 
>  <excitation_energy_4> 
5.43 
 
>  <homo_energy> 
-6.414 
 
>  <homo_lumo_gap> 
5.317 
 
>  <logP> 
1.402 
 
>  <lumo_energy> 
-1.097 
 
>  <melting_point> 
47.84 
 
>  <molecular_refractivity> 
36.93 
 
>  <oscillator_strength_1> 
0.0054 
 
>  <oscillator_strength_2> 
0.0001 
 
>  <oscillator_strength_3> 
0.1524 
 
>  <oscillator_strength_4> 
0.0 
 
>  <open_babel_can_smiles> 
Cc1cnc(c(n1)C)C 
 
>  <mulliken_charges> 
19 
1   -0.50943 
2   -0.507838 
3   -0.509027 
4   -0.009225 
5   0.299482 
6   0.254946 
7   0.26185 
8   -0.431224 
9   -0.488177 
10   0.153386 
11   0.173257 
12   0.17332 
13   0.153123 
14   0.173514 
15   0.173718 
16   0.153824 
17   0.173694 
18   0.173675 
19   0.137132 
 
>  <lowdin_charges> 
19 
1   -0.444957 
2   -0.448898 
3   -0.446663 
4   -0.124595 
5   0.035711 
6   0.025478 
7   0.032297 
8   -0.130009 
9   -0.143526 
10   0.156084 
11   0.170071 
12   0.170226 
13   0.155278 
14   0.170404 
15   0.170619 
16   0.153807 
17   0.170812 
18   0.17074 
19   0.157122 
 
$$$$ 
 
