PCCDB-ID:  36248 
public computational chemistry database (PCCDB) project, http://pccdb.org 
 
 17 17  0  0  0  0  0  0  0  0999 V2000 
    0.9617   -0.1552   -0.2079 C   0  0  0  0  0  0  0  0  0  0  0  0 
    3.0547    1.2953   -0.0657 C   0  0  0  0  0  0  0  0  0  0  0  0 
    7.7881   -1.9106   -0.0865 C   0  0  0  0  0  0  0  0  0  0  0  0 
    2.4392    0.0806   -0.1007 C   0  0  0  0  0  0  0  0  0  0  0  0 
    4.5232   -0.6317    0.0589 C   0  0  0  0  0  0  0  0  0  0  0  0 
    6.8485   -1.0593    0.0232 N   0  0  0  0  0  0  0  0  0  0  0  0 
    3.2841   -1.0185   -0.0314 N   0  0  0  0  0  0  0  0  0  0  0  0 
    5.5668   -1.5186    0.1926 N   0  0  0  0  0  0  0  0  0  0  0  0 
    9.0753   -1.5304   -0.2222 O   0  0  0  0  0  0  0  0  0  0  0  0 
    4.7937    1.1075    0.0585 S   0  0  0  0  0  0  0  0  0  0  0  0 
    0.4138    0.7887   -0.2805 H   0  0  0  0  0  0  0  0  0  0  0  0 
    0.5913   -0.7046    0.6661 H   0  0  0  0  0  0  0  0  0  0  0  0 
    0.7286   -0.7618   -1.0911 H   0  0  0  0  0  0  0  0  0  0  0  0 
    2.6092    2.2788   -0.1152 H   0  0  0  0  0  0  0  0  0  0  0  0 
    7.6797   -2.9967   -0.0844 H   0  0  0  0  0  0  0  0  0  0  0  0 
    5.3382   -2.4850   -0.0293 H   0  0  0  0  0  0  0  0  0  0  0  0 
    9.0906   -0.5555   -0.2069 H   0  0  0  0  0  0  0  0  0  0  0  0 
  1  4  1  0  0  0  0 
  1 12  1  0  0  0  0 
  2 10  1  0  0  0  0 
  3 15  1  0  0  0  0 
  3  6  2  0  0  0  0 
  4  2  2  0  0  0  0 
  4  7  1  0  0  0  0 
  5  8  1  0  0  0  0 
  6  8  1  0  0  0  0 
  7  5  2  0  0  0  0 
  9 17  1  0  0  0  0 
  9  3  1  0  0  0  0 
 10  5  1  0  0  0  0 
 11  1  1  0  0  0  0 
 13  1  1  0  0  0  0 
 14  2  1  0  0  0  0 
 16  8  1  0  0  0  0 
M  END 
>  <HBA> 
5 
 
>  <HBD> 
2 
 
>  <TPSA> 
82.26 
 
>  <cid> 
36248 
 
>  <dipole> 
1.06 
 
>  <excitation_energy_1> 
4.396 
 
>  <excitation_energy_2> 
4.564 
 
>  <excitation_energy_3> 
4.829 
 
>  <excitation_energy_4> 
5.023 
 
>  <homo_energy> 
-5.271 
 
>  <homo_lumo_gap> 
5.05 
 
>  <logP> 
1.624 
 
>  <lumo_energy> 
-0.22 
 
>  <melting_point> 
106.01 
 
>  <molecular_refractivity> 
39.78 
 
>  <oscillator_strength_1> 
0.2276 
 
>  <oscillator_strength_2> 
0.0173 
 
>  <oscillator_strength_3> 
0.0059 
 
>  <oscillator_strength_4> 
0.0027 
 
>  <open_babel_can_smiles> 
Cc1csc(n1)N/N=C/O 
 
>  <mulliken_charges> 
17 
1   -0.507089 
2   -0.404699 
3   0.283662 
4   0.333937 
5   0.328209 
6   -0.261991 
7   -0.503637 
8   -0.479794 
9   -0.559532 
10   0.223323 
11   0.150053 
12   0.166226 
13   0.165184 
14   0.161399 
15   0.153176 
16   0.333361 
17   0.418211 
 
>  <lowdin_charges> 
17 
1   -0.4379 
2   -0.372184 
3   -0.007668 
4   0.030429 
5   -0.037718 
6   -0.14124 
7   -0.222208 
8   -0.184216 
9   -0.350222 
10   0.264 
11   0.157169 
12   0.16506 
13   0.164473 
14   0.180499 
15   0.147395 
16   0.281021 
17   0.363309 
 
$$$$ 
 
