PCCDB-ID:  62378 
public computational chemistry database (PCCDB) project, http://pccdb.org 
 
 30 30  0  0  0  0  0  0  0  0999 V2000 
    2.2489    0.2936    1.0461 C   0  0  0  0  0  0  0  0  0  0  0  0 
    8.7682   -3.1850   -0.7394 C   0  0  0  0  0  0  0  0  0  0  0  0 
    3.5138    0.3094    0.1816 C   0  0  0  0  0  0  0  0  0  0  0  0 
    3.9807   -1.0922   -0.2323 C   0  0  0  0  0  0  0  0  0  0  0  0 
    5.2457   -1.0820   -1.0985 C   0  0  0  0  0  0  0  0  0  0  0  0 
    5.7009   -2.4976   -1.5110 C   0  0  0  0  0  0  0  0  0  0  0  0 
    9.1448   -2.6250   -3.2563 C   0  0  0  0  0  0  0  0  0  0  0  0 
    8.2351   -2.1983   -4.4215 C   0  0  0  0  0  0  0  0  0  0  0  0 
    8.2137   -2.7694   -2.0659 C   0  0  0  0  0  0  0  0  0  0  0  0 
    6.9276   -2.4902   -2.3765 C   0  0  0  0  0  0  0  0  0  0  0  0 
    6.8308   -2.1220   -3.8103 C   0  0  0  0  0  0  0  0  0  0  0  0 
    5.8111   -1.8156   -4.4056 O   0  0  0  0  0  0  0  0  0  0  0  0 
    1.9396    1.3082    1.3221 H   0  0  0  0  0  0  0  0  0  0  0  0 
    2.4094   -0.2696    1.9738 H   0  0  0  0  0  0  0  0  0  0  0  0 
    1.4123   -0.1767    0.5150 H   0  0  0  0  0  0  0  0  0  0  0  0 
    9.5100   -2.4555   -0.3857 H   0  0  0  0  0  0  0  0  0  0  0  0 
    9.2942   -4.1459   -0.8230 H   0  0  0  0  0  0  0  0  0  0  0  0 
    7.9963   -3.2821    0.0286 H   0  0  0  0  0  0  0  0  0  0  0  0 
    4.3238    0.8149    0.7267 H   0  0  0  0  0  0  0  0  0  0  0  0 
    3.3339    0.9105   -0.7208 H   0  0  0  0  0  0  0  0  0  0  0  0 
    3.1709   -1.5960   -0.7804 H   0  0  0  0  0  0  0  0  0  0  0  0 
    4.1586   -1.6965    0.6703 H   0  0  0  0  0  0  0  0  0  0  0  0 
    6.0612   -0.5822   -0.5565 H   0  0  0  0  0  0  0  0  0  0  0  0 
    5.0657   -0.4948   -2.0074 H   0  0  0  0  0  0  0  0  0  0  0  0 
    4.8873   -2.9687   -2.0781 H   0  0  0  0  0  0  0  0  0  0  0  0 
    5.8622   -3.1085   -0.6140 H   0  0  0  0  0  0  0  0  0  0  0  0 
    9.9317   -1.8883   -3.0426 H   0  0  0  0  0  0  0  0  0  0  0  0 
    9.6660   -3.5721   -3.4535 H   0  0  0  0  0  0  0  0  0  0  0  0 
    8.2327   -2.9134   -5.2512 H   0  0  0  0  0  0  0  0  0  0  0  0 
    8.5028   -1.2242   -4.8451 H   0  0  0  0  0  0  0  0  0  0  0  0 
  1 13  1  0  0  0  0 
  1 14  1  0  0  0  0 
  2 16  1  0  0  0  0 
  2 18  1  0  0  0  0 
  3 19  1  0  0  0  0 
  3  1  1  0  0  0  0 
  4  3  1  0  0  0  0 
  4 22  1  0  0  0  0 
  5 23  1  0  0  0  0 
  5  4  1  0  0  0  0 
  6  5  1  0  0  0  0 
  6 26  1  0  0  0  0 
  7 27  1  0  0  0  0 
  7  9  1  0  0  0  0 
  8 11  1  0  0  0  0 
  8  7  1  0  0  0  0 
  9  2  1  0  0  0  0 
 10  9  2  0  0  0  0 
 10  6  1  0  0  0  0 
 11 10  1  0  0  0  0 
 12 11  2  0  0  0  0 
 15  1  1  0  0  0  0 
 17  2  1  0  0  0  0 
 20  3  1  0  0  0  0 
 21  4  1  0  0  0  0 
 24  5  1  0  0  0  0 
 25  6  1  0  0  0  0 
 28  7  1  0  0  0  0 
 29  8  1  0  0  0  0 
 30  8  1  0  0  0  0 
M  END 
>  <HBA> 
1 
 
>  <HBD> 
0 
 
>  <TPSA> 
17.07 
 
>  <cid> 
62378 
 
>  <dipole> 
3.64 
 
>  <excitation_energy_1> 
3.872 
 
>  <excitation_energy_2> 
5.526 
 
>  <excitation_energy_3> 
5.947 
 
>  <excitation_energy_4> 
6.154 
 
>  <homo_energy> 
-6.289 
 
>  <homo_lumo_gap> 
5.366 
 
>  <logP> 
3.246 
 
>  <lumo_energy> 
-0.922 
 
>  <melting_point> 
30.72 
 
>  <molecular_refractivity> 
52.6 
 
>  <oscillator_strength_1> 
0.0004 
 
>  <oscillator_strength_2> 
0.3102 
 
>  <oscillator_strength_3> 
0.0125 
 
>  <oscillator_strength_4> 
0.0033 
 
>  <open_babel_can_smiles> 
CCCCCC1=C(C)CCC1=O 
 
>  <mulliken_charges> 
30 
1   -0.441439 
2   -0.522124 
3   -0.247363 
4   -0.244541 
5   -0.258782 
6   -0.337813 
7   -0.338806 
8   -0.36464 
9   0.096153 
10   0.082705 
11   0.392567 
12   -0.483553 
13   0.141157 
14   0.139343 
15   0.142653 
16   0.166137 
17   0.164731 
18   0.167248 
19   0.127813 
20   0.134822 
21   0.13279 
22   0.121866 
23   0.124223 
24   0.158237 
25   0.158527 
26   0.132087 
27   0.154794 
28   0.154788 
29   0.173438 
30   0.172981 
 
>  <lowdin_charges> 
30 
1   -0.444631 
2   -0.4457 
3   -0.273257 
4   -0.275872 
5   -0.273658 
6   -0.272913 
7   -0.279461 
8   -0.309678 
9   0.018778 
10   -0.067177 
11   0.143672 
12   -0.259937 
13   0.148327 
14   0.14522 
15   0.147749 
16   0.166499 
17   0.1642 
18   0.163651 
19   0.138738 
20   0.141503 
21   0.141548 
22   0.134841 
23   0.137273 
24   0.15361 
25   0.161541 
26   0.144491 
27   0.15539 
28   0.154711 
29   0.170753 
30   0.169789 
 
$$$$ 
 
