PCCDB-ID:  11188 
public computational chemistry database (PCCDB) project, http://pccdb.org 
 
 25 24  0  0  1  0  0  0  0  0999 V2000 
    0.0605   -1.0523    2.1390 C   0  0  0  0  0  0  0  0  0  0  0  0 
    1.3109   -0.5997    1.3795 C   0  0  0  0  0  0  0  0  0  0  0  0 
    2.6008   -0.9621    2.1191 C   0  0  0  0  0  0  0  0  0  0  0  0 
    8.1051    1.0955    1.1165 C   0  0  0  0  0  0  0  0  0  0  0  0 
    6.2372   -0.5660    1.4770 C   0  0  0  0  0  0  0  0  0  0  0  0 
    6.7218    0.8541    1.7419 C   0  0  2  0  0  0  0  0  0  0  0  0 
    3.8539   -0.5222    1.3947 C   0  0  0  0  0  0  0  0  0  0  0  0 
    8.4737    2.4497    1.2670 O   0  0  0  0  0  0  0  0  0  0  0  0 
    5.8279    1.8508    1.2456 O   0  0  0  0  0  0  0  0  0  0  0  0 
    3.8788    0.0439    0.3159 O   0  0  0  0  0  0  0  0  0  0  0  0 
    4.9606   -0.8455    2.0962 O   0  0  0  0  0  0  0  0  0  0  0  0 
   -0.8492   -0.7872    1.5896 H   0  0  0  0  0  0  0  0  0  0  0  0 
    0.0008   -0.5815    3.1279 H   0  0  0  0  0  0  0  0  0  0  0  0 
    0.0537   -2.1391    2.2886 H   0  0  0  0  0  0  0  0  0  0  0  0 
    1.2820    0.4844    1.2194 H   0  0  0  0  0  0  0  0  0  0  0  0 
    1.3301   -1.0511    0.3808 H   0  0  0  0  0  0  0  0  0  0  0  0 
    2.6730   -2.0458    2.2843 H   0  0  0  0  0  0  0  0  0  0  0  0 
    2.6244   -0.5125    3.1210 H   0  0  0  0  0  0  0  0  0  0  0  0 
    8.0771    0.8018    0.0512 H   0  0  0  0  0  0  0  0  0  0  0  0 
    8.8724    0.4894    1.6119 H   0  0  0  0  0  0  0  0  0  0  0  0 
    6.9268   -1.2877    1.9222 H   0  0  0  0  0  0  0  0  0  0  0  0 
    6.1594   -0.7590    0.4021 H   0  0  0  0  0  0  0  0  0  0  0  0 
    6.7941    1.0181    2.8247 H   0  0  0  0  0  0  0  0  0  0  0  0 
    7.6699    2.9493    1.0345 H   0  0  0  0  0  0  0  0  0  0  0  0 
    5.2571    1.4440    0.5675 H   0  0  0  0  0  0  0  0  0  0  0  0 
  1 14  1  0  0  0  0 
  1 13  1  0  0  0  0 
  2  3  1  0  0  0  0 
  2  1  1  0  0  0  0 
  3 17  1  0  0  0  0 
  3 18  1  0  0  0  0 
  4  8  1  0  0  0  0 
  4 20  1  0  0  0  0 
  4  6  1  0  0  0  0 
  5  6  1  0  0  0  0 
  5 21  1  0  0  0  0 
  5 11  1  0  0  0  0 
  6 23  1  1  0  0  0 
  7 11  1  0  0  0  0 
  7  3  1  0  0  0  0 
  9  6  1  0  0  0  0 
 10  7  2  0  0  0  0 
 12  1  1  0  0  0  0 
 15  2  1  0  0  0  0 
 16  2  1  0  0  0  0 
 19  4  1  0  0  0  0 
 22  5  1  0  0  0  0 
 24  8  1  0  0  0  0 
 25  9  1  0  0  0  0 
M  END 
>  <HBA> 
4 
 
>  <HBD> 
2 
 
>  <TPSA> 
66.76 
 
>  <cid> 
11188 
 
>  <dipole> 
3.65 
 
>  <excitation_energy_1> 
5.87 
 
>  <excitation_energy_2> 
6.105 
 
>  <excitation_energy_3> 
6.614 
 
>  <excitation_energy_4> 
6.887 
 
>  <homo_energy> 
-6.895 
 
>  <homo_lumo_gap> 
6.713 
 
>  <logP> 
-0.317 
 
>  <lumo_energy> 
-0.182 
 
>  <melting_point> 
22.45 
 
>  <molecular_refractivity> 
39.37 
 
>  <oscillator_strength_1> 
0.0003 
 
>  <oscillator_strength_2> 
0.0112 
 
>  <oscillator_strength_3> 
0.0002 
 
>  <oscillator_strength_4> 
0.002 
 
>  <open_babel_can_smiles> 
CCCC(=O)OC[C@@H](CO)O 
 
>  <mulliken_charges> 
25 
1   -0.448172 
2   -0.245493 
3   -0.356793 
4   -0.01927 
5   -0.099845 
6   0.108705 
7   0.642205 
8   -0.623759 
9   -0.662937 
10   -0.502507 
11   -0.45516 
12   0.151717 
13   0.145347 
14   0.143612 
15   0.155272 
16   0.153183 
17   0.174797 
18   0.179815 
19   0.111364 
20   0.136018 
21   0.165217 
22   0.167551 
23   0.150163 
24   0.405884 
25   0.423085 
 
>  <lowdin_charges> 
25 
1   -0.44237 
2   -0.265894 
3   -0.29586 
4   -0.148779 
5   -0.150732 
6   -0.026061 
7   0.210011 
8   -0.465329 
9   -0.478255 
10   -0.280355 
11   -0.183255 
12   0.155332 
13   0.147873 
14   0.145652 
15   0.151473 
16   0.151614 
17   0.16871 
18   0.172549 
19   0.120734 
20   0.146354 
21   0.166195 
22   0.155485 
23   0.146182 
24   0.346698 
25   0.352027 
 
$$$$ 
 
