PCCDB-ID:  12144 
public computational chemistry database (PCCDB) project, http://pccdb.org 
 
 19 19  0  0  0  0  0  0  0  0999 V2000 
    2.5515    2.3546   -1.1051 C   0  0  0  0  0  0  0  0  0  0  0  0 
    4.0469    2.3348   -0.7963 C   0  0  0  0  0  0  0  0  0  0  0  0 
    8.9208    1.7122    1.1484 C   0  0  0  0  0  0  0  0  0  0  0  0 
    8.0997    2.6740    1.7401 C   0  0  0  0  0  0  0  0  0  0  0  0 
    8.3511    0.6560    0.4345 C   0  0  0  0  0  0  0  0  0  0  0  0 
    6.7123    2.5828    1.6174 C   0  0  0  0  0  0  0  0  0  0  0  0 
    6.9641    0.5611    0.3109 C   0  0  0  0  0  0  0  0  0  0  0  0 
    6.1358    1.5282    0.8967 C   0  0  0  0  0  0  0  0  0  0  0  0 
    4.3483    1.3903    0.7658 S   0  0  0  0  0  0  0  0  0  0  0  0 
    2.3672    2.9182   -2.0268 H   0  0  0  0  0  0  0  0  0  0  0  0 
    1.9846    2.8310   -0.2981 H   0  0  0  0  0  0  0  0  0  0  0  0 
    2.1604    1.3411   -1.2440 H   0  0  0  0  0  0  0  0  0  0  0  0 
    4.4345    3.3504   -0.6689 H   0  0  0  0  0  0  0  0  0  0  0  0 
    4.6067    1.8551   -1.6055 H   0  0  0  0  0  0  0  0  0  0  0  0 
   10.0007    1.7825    1.2476 H   0  0  0  0  0  0  0  0  0  0  0  0 
    8.5384    3.4952    2.3009 H   0  0  0  0  0  0  0  0  0  0  0  0 
    8.9859   -0.0986   -0.0226 H   0  0  0  0  0  0  0  0  0  0  0  0 
    6.0698    3.3247    2.0825 H   0  0  0  0  0  0  0  0  0  0  0  0 
    6.5166   -0.2637   -0.2358 H   0  0  0  0  0  0  0  0  0  0  0  0 
  1  2  1  0  0  0  0 
  1 11  1  0  0  0  0 
  2 13  1  0  0  0  0 
  2  9  1  0  0  0  0 
  3 15  1  0  0  0  0 
  3  4  2  0  0  0  0 
  4 16  1  0  0  0  0 
  5  3  1  0  0  0  0 
  6  4  1  0  0  0  0 
  6 18  1  0  0  0  0 
  7  5  2  0  0  0  0 
  7  8  1  0  0  0  0 
  8  6  2  0  0  0  0 
  9  8  1  0  0  0  0 
 10  1  1  0  0  0  0 
 12  1  1  0  0  0  0 
 14  2  1  0  0  0  0 
 17  5  1  0  0  0  0 
 19  7  1  0  0  0  0 
M  END 
>  <HBA> 
1 
 
>  <HBD> 
0 
 
>  <TPSA> 
25.3 
 
>  <cid> 
12144 
 
>  <dipole> 
1.84 
 
>  <excitation_energy_1> 
4.418 
 
>  <excitation_energy_2> 
4.865 
 
>  <excitation_energy_3> 
5.253 
 
>  <excitation_energy_4> 
5.448 
 
>  <homo_energy> 
-6.038 
 
>  <homo_lumo_gap> 
5.603 
 
>  <logP> 
2.799 
 
>  <lumo_energy> 
-0.435 
 
>  <melting_point> 
15.47 
 
>  <molecular_refractivity> 
42.97 
 
>  <oscillator_strength_1> 
0.0002 
 
>  <oscillator_strength_2> 
0.0008 
 
>  <oscillator_strength_3> 
0.0012 
 
>  <oscillator_strength_4> 
0.0 
 
>  <open_babel_can_smiles> 
CCSc1ccccc1 
 
>  <mulliken_charges> 
19 
1   -0.45493 
2   -0.388496 
3   -0.12968 
4   -0.119973 
5   -0.119914 
6   -0.142716 
7   -0.142513 
8   -0.095345 
9   0.071519 
10   0.154303 
11   0.164373 
12   0.164195 
13   0.171764 
14   0.171606 
15   0.134044 
16   0.134169 
17   0.134127 
18   0.146845 
19   0.146622 
 
>  <lowdin_charges> 
19 
1   -0.44653 
2   -0.363174 
3   -0.148742 
4   -0.156599 
5   -0.157457 
6   -0.155081 
7   -0.154258 
8   -0.1281 
9   0.106386 
10   0.157537 
11   0.159844 
12   0.158042 
13   0.15548 
14   0.157196 
15   0.157636 
16   0.160839 
17   0.16125 
18   0.168157 
19   0.167575 
 
$$$$ 
 
