PCCDB-ID:  14247 
public computational chemistry database (PCCDB) project, http://pccdb.org 
 
 21 20  0  0  0  0  0  0  0  0999 V2000 
    0.9003   -0.0180    0.0411 C   0  0  0  0  0  0  0  0  0  0  0  0 
    2.4316   -0.0261    0.0877 C   0  0  0  0  0  0  0  0  0  0  0  0 
    2.9928   -0.6202    1.3861 C   0  0  0  0  0  0  0  0  0  0  0  0 
    4.5259   -0.6326    1.4360 C   0  0  0  0  0  0  0  0  0  0  0  0 
    5.0777   -1.2216    2.7352 C   0  0  0  0  0  0  0  0  0  0  0  0 
    7.0231   -1.6703    4.0391 N   0  0  0  0  0  0  0  0  0  0  0  0 
    6.5430   -1.2763    2.6937 N   0  0  0  0  0  0  0  0  0  0  0  0 
    0.5303    0.4094   -0.8979 H   0  0  0  0  0  0  0  0  0  0  0  0 
    0.4814    0.5739    0.8643 H   0  0  0  0  0  0  0  0  0  0  0  0 
    0.4958   -1.0342    0.1266 H   0  0  0  0  0  0  0  0  0  0  0  0 
    2.8075    0.9999   -0.0327 H   0  0  0  0  0  0  0  0  0  0  0  0 
    2.8216   -0.5949   -0.7683 H   0  0  0  0  0  0  0  0  0  0  0  0 
    2.6167   -1.6471    1.5058 H   0  0  0  0  0  0  0  0  0  0  0  0 
    2.6022   -0.0515    2.2428 H   0  0  0  0  0  0  0  0  0  0  0  0 
    4.8995    0.3961    1.3167 H   0  0  0  0  0  0  0  0  0  0  0  0 
    4.9259   -1.2072    0.5906 H   0  0  0  0  0  0  0  0  0  0  0  0 
    4.7106   -2.2522    2.8512 H   0  0  0  0  0  0  0  0  0  0  0  0 
    4.7096   -0.6543    3.6084 H   0  0  0  0  0  0  0  0  0  0  0  0 
    8.0237   -1.8344    3.8964 H   0  0  0  0  0  0  0  0  0  0  0  0 
    6.6555   -2.6191    4.1560 H   0  0  0  0  0  0  0  0  0  0  0  0 
    6.8558   -0.3052    2.6209 H   0  0  0  0  0  0  0  0  0  0  0  0 
  1  2  1  0  0  0  0 
  1 10  1  0  0  0  0 
  1  9  1  0  0  0  0 
  2  3  1  0  0  0  0 
  3  4  1  0  0  0  0 
  3 13  1  0  0  0  0 
  3 14  1  0  0  0  0 
  4  5  1  0  0  0  0 
  5 17  1  0  0  0  0 
  5 18  1  0  0  0  0 
  6 20  1  0  0  0  0 
  7  5  1  0  0  0  0 
  7  6  1  0  0  0  0 
  8  1  1  0  0  0  0 
 11  2  1  0  0  0  0 
 12  2  1  0  0  0  0 
 15  4  1  0  0  0  0 
 16  4  1  0  0  0  0 
 19  6  1  0  0  0  0 
 21  7  1  0  0  0  0 
M  END 
>  <HBA> 
2 
 
>  <HBD> 
2 
 
>  <TPSA> 
38.05 
 
>  <cid> 
14247 
 
>  <dipole> 
0.42 
 
>  <excitation_energy_1> 
4.745 
 
>  <excitation_energy_2> 
5.274 
 
>  <excitation_energy_3> 
5.634 
 
>  <excitation_energy_4> 
5.831 
 
>  <homo_energy> 
-5.244 
 
>  <homo_lumo_gap> 
7.543 
 
>  <logP> 
1.731 
 
>  <lumo_energy> 
2.299 
 
>  <melting_point> 
55.53 
 
>  <molecular_refractivity> 
31.66 
 
>  <oscillator_strength_1> 
0.0043 
 
>  <oscillator_strength_2> 
0.013 
 
>  <oscillator_strength_3> 
0.0034 
 
>  <oscillator_strength_4> 
0.0147 
 
>  <open_babel_can_smiles> 
CCCCCNN 
 
>  <mulliken_charges> 
21 
1   -0.442071 
2   -0.246385 
3   -0.248596 
4   -0.267377 
5   -0.112328 
6   -0.595497 
7   -0.471865 
8   0.142299 
9   0.141724 
10   0.141661 
11   0.130594 
12   0.131967 
13   0.128997 
14   0.129832 
15   0.125493 
16   0.146103 
17   0.129605 
18   0.127491 
19   0.303012 
20   0.301337 
21   0.304003 
 
>  <lowdin_charges> 
21 
1   -0.44508 
2   -0.271225 
3   -0.273112 
4   -0.278176 
5   -0.209174 
6   -0.494823 
7   -0.321632 
8   0.149805 
9   0.147363 
10   0.145696 
11   0.138047 
12   0.140481 
13   0.137542 
14   0.139513 
15   0.135803 
16   0.148537 
17   0.133683 
18   0.126549 
19   0.251266 
20   0.250012 
21   0.248925 
 
$$$$ 
 
