PCCDB-ID:  67519 
public computational chemistry database (PCCDB) project, http://pccdb.org 
 
  7  7  0  0  0  0  0  0  0  0999 V2000 
   -1.0765   -0.0189   -0.0020 C   0  0  0  0  0  0  0  0  0  0  0  0 
   -0.3572   -1.1367   -0.0035 N   0  0  0  0  0  0  0  0  0  0  0  0 
   -0.3142    1.1035   -0.0001 N   0  0  0  0  0  0  0  0  0  0  0  0 
    0.8715   -0.6299   -0.0025 N   0  0  0  0  0  0  0  0  0  0  0  0 
    0.9329    0.6980   -0.0005 N   0  0  0  0  0  0  0  0  0  0  0  0 
   -2.1558   -0.0099   -0.0021 H   0  0  0  0  0  0  0  0  0  0  0  0 
    1.7016   -1.2087   -0.0032 H   0  0  0  0  0  0  0  0  0  0  0  0 
  1  3  1  0  0  0  0 
  2  4  1  0  0  0  0 
  2  1  2  0  0  0  0 
  4  5  1  0  0  0  0 
  5  3  2  0  0  0  0 
  6  1  1  0  0  0  0 
  7  4  1  0  0  0  0 
M  END 
>  <HBA> 
3 
 
>  <HBD> 
1 
 
>  <TPSA> 
54.46 
 
>  <cid> 
67519 
 
>  <dipole> 
2.27 
 
>  <excitation_energy_1> 
5.778 
 
>  <excitation_energy_2> 
6.397 
 
>  <excitation_energy_3> 
6.898 
 
>  <excitation_energy_4> 
7.274 
 
>  <homo_energy> 
-8.183 
 
>  <homo_lumo_gap> 
7.233 
 
>  <logP> 
-0.8 
 
>  <lumo_energy> 
-0.95 
 
>  <melting_point> 
96.1 
 
>  <molecular_refractivity> 
14.18 
 
>  <oscillator_strength_1> 
0.0086 
 
>  <oscillator_strength_2> 
0.0 
 
>  <oscillator_strength_3> 
0.0594 
 
>  <oscillator_strength_4> 
0.0046 
 
>  <open_babel_can_smiles> 
n1ncn[nH]1 
 
>  <mulliken_charges> 
7 
1   0.20597 
2   -0.254398 
3   -0.276731 
4   -0.190287 
5   -0.046604 
6   0.184045 
7   0.378006 
 
>  <lowdin_charges> 
7 
1   -0.110137 
2   -0.123207 
3   -0.128537 
4   -0.07048 
5   -0.063289 
6   0.182201 
7   0.313449 
 
$$$$ 
 
