PCCDB-ID:  11455 
public computational chemistry database (PCCDB) project, http://pccdb.org 
 
 20 20  0  0  0  0  0  0  0  0999 V2000 
    0.9441    0.0017   -0.0403 C   0  0  0  0  0  0  0  0  0  0  0  0 
    4.5978   -3.7274   -1.0047 C   0  0  0  0  0  0  0  0  0  0  0  0 
    4.5748    1.2029   -0.0557 C   0  0  0  0  0  0  0  0  0  0  0  0 
    3.1796    1.1963    0.0242 C   0  0  0  0  0  0  0  0  0  0  0  0 
    5.2649    0.0252   -0.3188 C   0  0  0  0  0  0  0  0  0  0  0  0 
    3.1597   -1.1635   -0.4246 C   0  0  0  0  0  0  0  0  0  0  0  0 
    2.4512    0.0138   -0.1563 C   0  0  0  0  0  0  0  0  0  0  0  0 
    5.3437   -2.4189   -0.7935 C   0  0  0  0  0  0  0  0  0  0  0  0 
    4.5592   -1.1730   -0.5070 C   0  0  0  0  0  0  0  0  0  0  0  0 
    6.5637   -2.3869   -0.8545 O   0  0  0  0  0  0  0  0  0  0  0  0 
    0.5151    0.9765   -0.2947 H   0  0  0  0  0  0  0  0  0  0  0  0 
    0.6257   -0.2370    0.9832 H   0  0  0  0  0  0  0  0  0  0  0  0 
    0.4963   -0.7474   -0.7021 H   0  0  0  0  0  0  0  0  0  0  0  0 
    3.8936   -3.6519   -1.8417 H   0  0  0  0  0  0  0  0  0  0  0  0 
    4.0181   -3.9982   -0.1140 H   0  0  0  0  0  0  0  0  0  0  0  0 
    5.3254   -4.5133   -1.2140 H   0  0  0  0  0  0  0  0  0  0  0  0 
    5.1189    2.1331    0.0848 H   0  0  0  0  0  0  0  0  0  0  0  0 
    2.6480    2.1238    0.2257 H   0  0  0  0  0  0  0  0  0  0  0  0 
    6.3474    0.0033   -0.3874 H   0  0  0  0  0  0  0  0  0  0  0  0 
    2.6018   -2.0842   -0.5731 H   0  0  0  0  0  0  0  0  0  0  0  0 
  1 12  1  0  0  0  0 
  2  8  1  0  0  0  0 
  2 15  1  0  0  0  0 
  3  4  1  0  0  0  0 
  3 17  1  0  0  0  0 
  4 18  1  0  0  0  0 
  5  3  2  0  0  0  0 
  6  7  1  0  0  0  0 
  7  1  1  0  0  0  0 
  7  4  2  0  0  0  0 
  8  9  1  0  0  0  0 
  9  6  2  0  0  0  0 
  9  5  1  0  0  0  0 
 10  8  2  0  0  0  0 
 11  1  1  0  0  0  0 
 13  1  1  0  0  0  0 
 14  2  1  0  0  0  0 
 16  2  1  0  0  0  0 
 19  5  1  0  0  0  0 
 20  6  1  0  0  0  0 
M  END 
>  <HBA> 
1 
 
>  <HBD> 
0 
 
>  <TPSA> 
17.07 
 
>  <cid> 
11455 
 
>  <dipole> 
3.38 
 
>  <excitation_energy_1> 
3.741 
 
>  <excitation_energy_2> 
4.543 
 
>  <excitation_energy_3> 
5.101 
 
>  <excitation_energy_4> 
5.576 
 
>  <homo_energy> 
-6.667 
 
>  <homo_lumo_gap> 
5.257 
 
>  <logP> 
2.198 
 
>  <lumo_energy> 
-1.41 
 
>  <melting_point> 
43.05 
 
>  <molecular_refractivity> 
41.6 
 
>  <oscillator_strength_1> 
0.0001 
 
>  <oscillator_strength_2> 
0.0317 
 
>  <oscillator_strength_3> 
0.2083 
 
>  <oscillator_strength_4> 
0.0 
 
>  <open_babel_can_smiles> 
Cc1cccc(c1)C(=O)C 
 
>  <mulliken_charges> 
20 
1   -0.529703 
2   -0.542267 
3   -0.128042 
4   -0.172198 
5   -0.163892 
6   -0.239512 
7   0.177115 
8   0.407593 
9   0.082248 
10   -0.453575 
11   0.15972 
12   0.169081 
13   0.158975 
14   0.169632 
15   0.170364 
16   0.180811 
17   0.136294 
18   0.128781 
19   0.162417 
20   0.126158 
 
>  <lowdin_charges> 
20 
1   -0.442878 
2   -0.476648 
3   -0.153667 
4   -0.151865 
5   -0.131272 
6   -0.16171 
7   0.00085 
8   0.159355 
9   -0.048937 
10   -0.242541 
11   0.159532 
12   0.162938 
13   0.160372 
14   0.169426 
15   0.170031 
16   0.17541 
17   0.161177 
18   0.157868 
19   0.174266 
20   0.158291 
 
$$$$ 
 
