PCCDB-ID:  61351 
public computational chemistry database (PCCDB) project, http://pccdb.org 
 
 18 17  0  0  0  0  0  0  0  0999 V2000 
    4.1990   -5.5209    1.5370 C   0  0  0  0  0  0  0  0  0  0  0  0 
    4.3422   -4.0200    1.3476 C   0  0  0  0  0  0  0  0  0  0  0  0 
    7.0341   -2.2798   -0.4475 C   0  0  0  0  0  0  0  0  0  0  0  0 
    5.7495   -2.3968    0.3632 C   0  0  0  0  0  0  0  0  0  0  0  0 
    7.3961   -0.8349   -0.7526 C   0  0  0  0  0  0  0  0  0  0  0  0 
    6.7535    0.1215   -0.3982 O   0  0  0  0  0  0  0  0  0  0  0  0 
    8.5345   -0.6594   -1.4794 O   0  0  0  0  0  0  0  0  0  0  0  0 
    5.5178   -3.7730    0.5905 O   0  0  0  0  0  0  0  0  0  0  0  0 
    3.3030   -5.7483    2.1249 H   0  0  0  0  0  0  0  0  0  0  0  0 
    5.0706   -5.9264    2.0612 H   0  0  0  0  0  0  0  0  0  0  0  0 
    4.1162   -6.0246    0.5684 H   0  0  0  0  0  0  0  0  0  0  0  0 
    4.4070   -3.5084    2.3228 H   0  0  0  0  0  0  0  0  0  0  0  0 
    3.4629   -3.6079    0.8241 H   0  0  0  0  0  0  0  0  0  0  0  0 
    6.9266   -2.8369   -1.3884 H   0  0  0  0  0  0  0  0  0  0  0  0 
    7.8586   -2.7559    0.1009 H   0  0  0  0  0  0  0  0  0  0  0  0 
    4.9127   -1.9382   -0.1860 H   0  0  0  0  0  0  0  0  0  0  0  0 
    5.8500   -1.8485    1.3125 H   0  0  0  0  0  0  0  0  0  0  0  0 
    8.9326   -1.5210   -1.6882 H   0  0  0  0  0  0  0  0  0  0  0  0 
  1 10  1  0  0  0  0 
  1  9  1  0  0  0  0 
  2  1  1  0  0  0  0 
  2 12  1  0  0  0  0 
  3 15  1  0  0  0  0 
  3  4  1  0  0  0  0 
  4  8  1  0  0  0  0 
  4 17  1  0  0  0  0 
  5  3  1  0  0  0  0 
  5  6  2  0  0  0  0 
  7  5  1  0  0  0  0 
  8  2  1  0  0  0  0 
 11  1  1  0  0  0  0 
 13  2  1  0  0  0  0 
 14  3  1  0  0  0  0 
 16  4  1  0  0  0  0 
 18  7  1  0  0  0  0 
M  END 
>  <HBA> 
3 
 
>  <HBD> 
1 
 
>  <TPSA> 
46.53 
 
>  <cid> 
61351 
 
>  <dipole> 
3.35 
 
>  <excitation_energy_1> 
5.752 
 
>  <excitation_energy_2> 
6.264 
 
>  <excitation_energy_3> 
6.393 
 
>  <excitation_energy_4> 
6.558 
 
>  <homo_energy> 
-7.061 
 
>  <homo_lumo_gap> 
7.274 
 
>  <logP> 
0.498 
 
>  <lumo_energy> 
0.212 
 
>  <melting_point> 
42.31 
 
>  <molecular_refractivity> 
29.01 
 
>  <oscillator_strength_1> 
0.0003 
 
>  <oscillator_strength_2> 
0.0 
 
>  <oscillator_strength_3> 
0.0051 
 
>  <oscillator_strength_4> 
0.0157 
 
>  <open_babel_can_smiles> 
CCOCCC(=O)O 
 
>  <mulliken_charges> 
18 
1   -0.453946 
2   -0.00535 
3   -0.423719 
4   0.00494 
5   0.608359 
6   -0.439272 
7   -0.56671 
8   -0.484018 
9   0.145793 
10   0.157821 
11   0.157723 
12   0.123171 
13   0.123174 
14   0.178865 
15   0.179389 
16   0.141361 
17   0.141787 
18   0.410632 
 
>  <lowdin_charges> 
18 
1   -0.449126 
2   -0.124048 
3   -0.329131 
4   -0.124458 
5   0.200055 
6   -0.2387 
7   -0.358419 
8   -0.279574 
9   0.155964 
10   0.157473 
11   0.156486 
12   0.126863 
13   0.128079 
14   0.16978 
15   0.171063 
16   0.139921 
17   0.139203 
18   0.358568 
 
$$$$ 
 
