PCCDB-ID:  26091 
public computational chemistry database (PCCDB) project, http://pccdb.org 
 
 23 22  0  0  0  0  0  0  0  0999 V2000 
    1.3079    2.7919   -0.4908 C   0  0  0  0  0  0  0  0  0  0  0  0 
    2.6841    2.9894   -1.1380 C   0  0  0  0  0  0  0  0  0  0  0  0 
    2.5686   -1.4734    0.1711 C   0  0  0  0  0  0  0  0  0  0  0  0 
    0.9947    1.3252   -0.1801 C   0  0  0  0  0  0  0  0  0  0  0  0 
    1.7298   -0.6196    1.1384 C   0  0  0  0  0  0  0  0  0  0  0  0 
    2.7189    2.3734   -2.4717 N   0  0  0  0  0  0  0  0  0  0  0  0 
    2.4720   -2.9223    0.3736 N   0  0  0  0  0  0  0  0  0  0  0  0 
    1.8679    0.8145    0.8800 N   0  0  0  0  0  0  0  0  0  0  0  0 
    0.5285    3.1900   -1.1566 H   0  0  0  0  0  0  0  0  0  0  0  0 
    1.2561    3.3875    0.4328 H   0  0  0  0  0  0  0  0  0  0  0  0 
    3.4306    2.4828   -0.5175 H   0  0  0  0  0  0  0  0  0  0  0  0 
    2.9330    4.0658   -1.1399 H   0  0  0  0  0  0  0  0  0  0  0  0 
    3.6195   -1.1770    0.2658 H   0  0  0  0  0  0  0  0  0  0  0  0 
    2.2803   -1.2601   -0.8648 H   0  0  0  0  0  0  0  0  0  0  0  0 
    1.1722    0.7404   -1.0877 H   0  0  0  0  0  0  0  0  0  0  0  0 
   -0.0780    1.2152    0.0728 H   0  0  0  0  0  0  0  0  0  0  0  0 
    2.0798   -0.8150    2.1612 H   0  0  0  0  0  0  0  0  0  0  0  0 
    0.6746   -0.9595    1.0961 H   0  0  0  0  0  0  0  0  0  0  0  0 
    2.1884    2.9448   -3.1287 H   0  0  0  0  0  0  0  0  0  0  0  0 
    3.6749    2.3532   -2.8214 H   0  0  0  0  0  0  0  0  0  0  0  0 
    1.5010   -3.2187    0.2763 H   0  0  0  0  0  0  0  0  0  0  0  0 
    2.7387   -3.1540    1.3305 H   0  0  0  0  0  0  0  0  0  0  0  0 
    1.6686    1.3289    1.7361 H   0  0  0  0  0  0  0  0  0  0  0  0 
  1  4  1  0  0  0  0 
  1 10  1  0  0  0  0 
  2 11  1  0  0  0  0 
  2  1  1  0  0  0  0 
  3 13  1  0  0  0  0 
  3  7  1  0  0  0  0 
  3  5  1  0  0  0  0 
  4 16  1  0  0  0  0 
  4  8  1  0  0  0  0 
  5 17  1  0  0  0  0 
  6  2  1  0  0  0  0 
  7 22  1  0  0  0  0 
  8  5  1  0  0  0  0 
  8 23  1  0  0  0  0 
  9  1  1  0  0  0  0 
 12  2  1  0  0  0  0 
 14  3  1  0  0  0  0 
 15  4  1  0  0  0  0 
 18  5  1  0  0  0  0 
 19  6  1  0  0  0  0 
 20  6  1  0  0  0  0 
 21  7  1  0  0  0  0 
M  END 
>  <HBA> 
3 
 
>  <HBD> 
3 
 
>  <TPSA> 
64.07 
 
>  <cid> 
26091 
 
>  <dipole> 
2.32 
 
>  <excitation_energy_1> 
5.246 
 
>  <excitation_energy_2> 
5.423 
 
>  <excitation_energy_3> 
5.606 
 
>  <excitation_energy_4> 
5.673 
 
>  <homo_energy> 
-5.704 
 
>  <homo_lumo_gap> 
7.875 
 
>  <logP> 
0.675 
 
>  <lumo_energy> 
2.171 
 
>  <melting_point> 
109.78 
 
>  <molecular_refractivity> 
34.37 
 
>  <oscillator_strength_1> 
0.0096 
 
>  <oscillator_strength_2> 
0.0223 
 
>  <oscillator_strength_3> 
0.0074 
 
>  <oscillator_strength_4> 
0.0053 
 
>  <open_babel_can_smiles> 
NCCNCCCN 
 
>  <mulliken_charges> 
23 
1   -0.258127 
2   -0.137101 
3   -0.135772 
4   -0.126903 
5   -0.133156 
6   -0.71577 
7   -0.706935 
8   -0.54923 
9   0.123802 
10   0.120204 
11   0.161112 
12   0.107752 
13   0.148632 
14   0.152693 
15   0.173124 
16   0.103583 
17   0.118769 
18   0.099686 
19   0.289199 
20   0.297484 
21   0.290043 
22   0.288471 
23   0.288441 
 
>  <lowdin_charges> 
23 
1   -0.28458 
2   -0.207667 
3   -0.212077 
4   -0.205243 
5   -0.219744 
6   -0.560713 
7   -0.549314 
8   -0.365221 
9   0.141189 
10   0.137516 
11   0.154085 
12   0.114633 
13   0.145668 
14   0.146355 
15   0.156657 
16   0.112228 
17   0.134215 
18   0.109885 
19   0.250782 
20   0.254883 
21   0.248483 
22   0.247722 
23   0.250259 
 
$$$$ 
 
