PCCDB-ID:  42011 
public computational chemistry database (PCCDB) project, http://pccdb.org 
 
 26 25  0  0  0  0  0  0  0  0999 V2000 
    2.0124   -0.6361    1.3550 C   0  0  0  0  0  0  0  0  0  0  0  0 
    3.5193   -0.4097    1.1434 C   0  0  0  0  0  0  0  0  0  0  0  0 
    3.8720    1.0429    0.9692 C   0  0  0  0  0  0  0  0  0  0  0  0 
    4.4475    1.5764   -0.1117 C   0  0  0  0  0  0  0  0  0  0  0  0 
    4.7967    3.0367   -0.2807 C   0  0  0  0  0  0  0  0  0  0  0  0 
    6.2815    3.2576   -0.4486 C   0  0  0  0  0  0  0  0  0  0  0  0 
    6.8649    3.7931   -1.5253 C   0  0  0  0  0  0  0  0  0  0  0  0 
    8.3453    3.9957   -1.7054 C   0  0  0  0  0  0  0  0  0  0  0  0 
    8.9425    3.1346   -2.8333 C   0  0  0  0  0  0  0  0  0  0  0  0 
    8.3627    3.3990   -4.1058 O   0  0  0  0  0  0  0  0  0  0  0  0 
    1.7918   -1.6982    1.5112 H   0  0  0  0  0  0  0  0  0  0  0  0 
    1.4391   -0.2924    0.4868 H   0  0  0  0  0  0  0  0  0  0  0  0 
    1.6491   -0.0868    2.2319 H   0  0  0  0  0  0  0  0  0  0  0  0 
    3.8615   -0.9794    0.2701 H   0  0  0  0  0  0  0  0  0  0  0  0 
    4.0607   -0.8142    2.0120 H   0  0  0  0  0  0  0  0  0  0  0  0 
    3.6130    1.6989    1.8043 H   0  0  0  0  0  0  0  0  0  0  0  0 
    4.7133    0.9275   -0.9484 H   0  0  0  0  0  0  0  0  0  0  0  0 
    4.4349    3.5940    0.5954 H   0  0  0  0  0  0  0  0  0  0  0  0 
    4.2732    3.4478   -1.1561 H   0  0  0  0  0  0  0  0  0  0  0  0 
    6.9036    2.9310    0.3869 H   0  0  0  0  0  0  0  0  0  0  0  0 
    6.2316    4.1239   -2.3518 H   0  0  0  0  0  0  0  0  0  0  0  0 
    8.8738    3.7627   -0.7714 H   0  0  0  0  0  0  0  0  0  0  0  0 
    8.5477    5.0494   -1.9436 H   0  0  0  0  0  0  0  0  0  0  0  0 
    8.8514    2.0688   -2.5703 H   0  0  0  0  0  0  0  0  0  0  0  0 
   10.0087    3.3591   -2.9426 H   0  0  0  0  0  0  0  0  0  0  0  0 
    7.4587    3.0497   -4.0893 H   0  0  0  0  0  0  0  0  0  0  0  0 
  1 11  1  0  0  0  0 
  1 13  1  0  0  0  0 
  2  1  1  0  0  0  0 
  2 15  1  0  0  0  0 
  3  2  1  0  0  0  0 
  3 16  1  0  0  0  0 
  4  3  2  0  0  0  0 
  5  4  1  0  0  0  0 
  5 18  1  0  0  0  0 
  6  5  1  0  0  0  0 
  6 20  1  0  0  0  0 
  7  6  2  0  0  0  0 
  8  7  1  0  0  0  0 
  8 22  1  0  0  0  0 
  9 24  1  0  0  0  0 
  9  8  1  0  0  0  0 
 10 26  1  0  0  0  0 
 10  9  1  0  0  0  0 
 12  1  1  0  0  0  0 
 14  2  1  0  0  0  0 
 17  4  1  0  0  0  0 
 19  5  1  0  0  0  0 
 21  7  1  0  0  0  0 
 23  8  1  0  0  0  0 
 25  9  1  0  0  0  0 
M  END 
>  <HBA> 
1 
 
>  <HBD> 
1 
 
>  <TPSA> 
20.23 
 
>  <cid> 
42011 
 
>  <dipole> 
1.9 
 
>  <excitation_energy_1> 
5.715 
 
>  <excitation_energy_2> 
5.976 
 
>  <excitation_energy_3> 
6.042 
 
>  <excitation_energy_4> 
6.22 
 
>  <homo_energy> 
-6.438 
 
>  <homo_lumo_gap> 
6.596 
 
>  <logP> 
2.281 
 
>  <lumo_energy> 
0.158 
 
>  <melting_point> 
9.64 
 
>  <molecular_refractivity> 
45.59 
 
>  <oscillator_strength_1> 
0.2611 
 
>  <oscillator_strength_2> 
0.078 
 
>  <oscillator_strength_3> 
0.0557 
 
>  <oscillator_strength_4> 
0.0052 
 
>  <open_babel_can_smiles> 
OCC/C=C/C/C=C/CC 
 
>  <mulliken_charges> 
26 
1   -0.439544 
2   -0.295839 
3   -0.087934 
4   -0.091992 
5   -0.35436 
6   -0.08444 
7   -0.12096 
8   -0.306027 
9   -0.035768 
10   -0.6144 
11   0.143773 
12   0.150135 
13   0.143553 
14   0.139006 
15   0.142371 
16   0.11491 
17   0.117652 
18   0.147517 
19   0.144726 
20   0.123845 
21   0.116799 
22   0.135261 
23   0.151592 
24   0.123407 
25   0.145585 
26   0.391132 
 
>  <lowdin_charges> 
26 
1   -0.442678 
2   -0.269449 
3   -0.166937 
4   -0.171431 
5   -0.267845 
6   -0.162191 
7   -0.182588 
8   -0.288591 
9   -0.129602 
10   -0.468622 
11   0.148524 
12   0.151363 
13   0.148191 
14   0.146634 
15   0.148628 
16   0.145292 
17   0.147073 
18   0.153895 
19   0.151968 
20   0.149825 
21   0.144485 
22   0.149926 
23   0.153286 
24   0.125418 
25   0.145153 
26   0.340274 
 
$$$$ 
 
