PCCDB-ID:  7930 
public computational chemistry database (PCCDB) project, http://pccdb.org 
 
 16 16  0  0  0  0  0  0  0  0999 V2000 
    0.9145   -0.0816    0.1181 C   0  0  0  0  0  0  0  0  0  0  0  0 
    4.5446    1.0727   -0.1476 C   0  0  0  0  0  0  0  0  0  0  0  0 
    3.1542    1.1005   -0.0335 C   0  0  0  0  0  0  0  0  0  0  0  0 
    5.2267   -0.1385   -0.2415 C   0  0  0  0  0  0  0  0  0  0  0  0 
    3.1101   -1.3062   -0.1093 C   0  0  0  0  0  0  0  0  0  0  0  0 
    2.4208   -0.0913   -0.0121 C   0  0  0  0  0  0  0  0  0  0  0  0 
    4.5040   -1.3384   -0.2225 C   0  0  0  0  0  0  0  0  0  0  0  0 
    5.2898   -2.9422   -0.3353 S   0  0  0  0  0  0  0  0  0  0  0  0 
    0.5200    0.9390    0.0998 H   0  0  0  0  0  0  0  0  0  0  0  0 
    0.5924   -0.5465    1.0584 H   0  0  0  0  0  0  0  0  0  0  0  0 
    0.4385   -0.6404   -0.6965 H   0  0  0  0  0  0  0  0  0  0  0  0 
    5.1056    2.0035   -0.1646 H   0  0  0  0  0  0  0  0  0  0  0  0 
    2.6348    2.0525    0.0396 H   0  0  0  0  0  0  0  0  0  0  0  0 
    6.3095   -0.1479   -0.3300 H   0  0  0  0  0  0  0  0  0  0  0  0 
    2.5499   -2.2388   -0.0975 H   0  0  0  0  0  0  0  0  0  0  0  0 
    6.5557   -2.4939   -0.4597 H   0  0  0  0  0  0  0  0  0  0  0  0 
  1 10  1  0  0  0  0 
  2  3  2  0  0  0  0 
  3  6  1  0  0  0  0 
  3 13  1  0  0  0  0 
  4  7  2  0  0  0  0 
  4  2  1  0  0  0  0 
  5 15  1  0  0  0  0 
  5  6  2  0  0  0  0 
  6  1  1  0  0  0  0 
  7  5  1  0  0  0  0 
  8  7  1  0  0  0  0 
  9  1  1  0  0  0  0 
 11  1  1  0  0  0  0 
 12  2  1  0  0  0  0 
 14  4  1  0  0  0  0 
 16  8  1  0  0  0  0 
M  END 
>  <HBA> 
1 
 
>  <HBD> 
1 
 
>  <TPSA> 
38.8 
 
>  <cid> 
7930 
 
>  <dipole> 
1.23 
 
>  <excitation_energy_1> 
4.717 
 
>  <excitation_energy_2> 
4.732 
 
>  <excitation_energy_3> 
5.221 
 
>  <excitation_energy_4> 
5.47 
 
>  <homo_energy> 
-5.872 
 
>  <homo_lumo_gap> 
5.753 
 
>  <logP> 
2.284 
 
>  <lumo_energy> 
-0.12 
 
>  <melting_point> 
32.92 
 
>  <molecular_refractivity> 
38.66 
 
>  <oscillator_strength_1> 
0.0081 
 
>  <oscillator_strength_2> 
0.0104 
 
>  <oscillator_strength_3> 
0.1935 
 
>  <oscillator_strength_4> 
0.0108 
 
>  <open_babel_can_smiles> 
Cc1cccc(c1)S 
 
>  <mulliken_charges> 
16 
1   -0.530698 
2   -0.114383 
3   -0.188804 
4   -0.159189 
5   -0.207408 
6   0.187328 
7   -0.053442 
8   -0.03032 
9   0.156254 
10   0.1663 
11   0.164353 
12   0.13207 
13   0.123605 
14   0.125854 
15   0.133801 
16   0.094678 
 
>  <lowdin_charges> 
16 
1   -0.442552 
2   -0.147104 
3   -0.178349 
4   -0.178111 
5   -0.179158 
6   0.011612 
7   -0.107227 
8   -0.012695 
9   0.156945 
10   0.162939 
11   0.163 
12   0.159943 
13   0.155817 
14   0.154824 
15   0.161507 
16   0.11861 
 
$$$$ 
 
