PCCDB-ID:  14519 
public computational chemistry database (PCCDB) project, http://pccdb.org 
 
 20 20  0  0  0  0  0  0  0  0999 V2000 
    0.8457    0.1612   -0.0683 C   0  0  0  0  0  0  0  0  0  0  0  0 
    7.1326   -0.7646   -1.4955 C   0  0  0  0  0  0  0  0  0  0  0  0 
    3.1629    1.1896   -0.1491 C   0  0  0  0  0  0  0  0  0  0  0  0 
    4.5524    1.0706   -0.2188 C   0  0  0  0  0  0  0  0  0  0  0  0 
    2.9686   -1.2021   -0.2522 C   0  0  0  0  0  0  0  0  0  0  0  0 
    2.3500    0.0525   -0.1686 C   0  0  0  0  0  0  0  0  0  0  0  0 
    4.3569   -1.3301   -0.3072 C   0  0  0  0  0  0  0  0  0  0  0  0 
    5.1660   -0.1773   -0.2995 C   0  0  0  0  0  0  0  0  0  0  0  0 
    4.9826   -2.5486   -0.3670 O   0  0  0  0  0  0  0  0  0  0  0  0 
    6.5387   -0.2509   -0.3015 O   0  0  0  0  0  0  0  0  0  0  0  0 
    0.4914    1.1272   -0.4428 H   0  0  0  0  0  0  0  0  0  0  0  0 
    0.5057    0.0709    0.9722 H   0  0  0  0  0  0  0  0  0  0  0  0 
    0.3445   -0.6260   -0.6425 H   0  0  0  0  0  0  0  0  0  0  0  0 
    8.2131   -0.7036   -1.3445 H   0  0  0  0  0  0  0  0  0  0  0  0 
    6.8534   -0.1537   -2.3649 H   0  0  0  0  0  0  0  0  0  0  0  0 
    6.8456   -1.8057   -1.6729 H   0  0  0  0  0  0  0  0  0  0  0  0 
    2.7106    2.1760   -0.0872 H   0  0  0  0  0  0  0  0  0  0  0  0 
    5.1914    1.9485   -0.2061 H   0  0  0  0  0  0  0  0  0  0  0  0 
    2.3568   -2.1045   -0.2642 H   0  0  0  0  0  0  0  0  0  0  0  0 
    4.3054   -3.2425   -0.3468 H   0  0  0  0  0  0  0  0  0  0  0  0 
  1 12  1  0  0  0  0 
  2 14  1  0  0  0  0 
  2 10  1  0  0  0  0 
  3 17  1  0  0  0  0 
  4 18  1  0  0  0  0 
  4  3  2  0  0  0  0 
  5  6  2  0  0  0  0 
  6  3  1  0  0  0  0 
  6  1  1  0  0  0  0 
  7  8  2  0  0  0  0 
  7  5  1  0  0  0  0 
  8  4  1  0  0  0  0 
  9 20  1  0  0  0  0 
  9  7  1  0  0  0  0 
 10  8  1  0  0  0  0 
 11  1  1  0  0  0  0 
 13  1  1  0  0  0  0 
 15  2  1  0  0  0  0 
 16  2  1  0  0  0  0 
 19  5  1  0  0  0  0 
M  END 
>  <HBA> 
2 
 
>  <HBD> 
1 
 
>  <TPSA> 
29.46 
 
>  <cid> 
14519 
 
>  <dipole> 
2.3 
 
>  <excitation_energy_1> 
4.901 
 
>  <excitation_energy_2> 
4.993 
 
>  <excitation_energy_3> 
5.537 
 
>  <excitation_energy_4> 
5.632 
 
>  <homo_energy> 
-5.693 
 
>  <homo_lumo_gap> 
5.861 
 
>  <logP> 
1.709 
 
>  <lumo_energy> 
0.169 
 
>  <melting_point> 
54.24 
 
>  <molecular_refractivity> 
39.92 
 
>  <oscillator_strength_1> 
0.0499 
 
>  <oscillator_strength_2> 
0.0003 
 
>  <oscillator_strength_3> 
0.0497 
 
>  <oscillator_strength_4> 
0.0008 
 
>  <open_babel_can_smiles> 
COc1ccc(cc1O)C 
 
>  <mulliken_charges> 
20 
1   -0.531177 
2   -0.212116 
3   -0.197131 
4   -0.172283 
5   -0.260639 
6   0.183055 
7   0.324826 
8   0.322523 
9   -0.644471 
10   -0.520765 
11   0.157372 
12   0.165041 
13   0.153533 
14   0.15678 
15   0.136707 
16   0.166403 
17   0.11949 
18   0.13533 
19   0.109191 
20   0.40833 
 
>  <lowdin_charges> 
20 
1   -0.441301 
2   -0.273545 
3   -0.184363 
4   -0.16758 
5   -0.221752 
6   0.002478 
7   0.080326 
8   0.063426 
9   -0.378433 
10   -0.225401 
11   0.158306 
12   0.160014 
13   0.157054 
14   0.153011 
15   0.137881 
16   0.149922 
17   0.154572 
18   0.166745 
19   0.149584 
20   0.359056 
 
$$$$ 
 
