PCCDB-ID:  32782 
public computational chemistry database (PCCDB) project, http://pccdb.org 
 
 25 25  0  0  0  0  0  0  0  0999 V2000 
    0.5579   -0.0885   -0.1082 C   0  0  0  0  0  0  0  0  0  0  0  0 
    8.5507   -0.0900    2.2750 C   0  0  0  0  0  0  0  0  0  0  0  0 
    2.8165   -1.2338    0.0500 C   0  0  0  0  0  0  0  0  0  0  0  0 
    2.7635    1.1617   -0.0337 C   0  0  0  0  0  0  0  0  0  0  0  0 
    4.2107   -1.2080    0.1030 C   0  0  0  0  0  0  0  0  0  0  0  0 
    4.1558    1.1920    0.0229 C   0  0  0  0  0  0  0  0  0  0  0  0 
    6.4214    0.0712    0.1105 C   0  0  0  0  0  0  0  0  0  0  0  0 
    2.0667   -0.0539   -0.0240 C   0  0  0  0  0  0  0  0  0  0  0  0 
    7.8965   -1.2050    1.4834 C   0  0  0  0  0  0  0  0  0  0  0  0 
    4.8997    0.0081    0.0882 C   0  0  0  0  0  0  0  0  0  0  0  0 
    7.0131   -1.1609    0.5810 N   0  0  0  0  0  0  0  0  0  0  0  0 
    8.3609   -2.4549    1.8071 O   0  0  0  0  0  0  0  0  0  0  0  0 
    0.1507   -0.9886    0.3647 H   0  0  0  0  0  0  0  0  0  0  0  0 
    0.2145   -0.0867   -1.1518 H   0  0  0  0  0  0  0  0  0  0  0  0 
    0.1078    0.7827    0.3807 H   0  0  0  0  0  0  0  0  0  0  0  0 
    8.1369    0.8909    2.0394 H   0  0  0  0  0  0  0  0  0  0  0  0 
    9.6280   -0.0622    2.0684 H   0  0  0  0  0  0  0  0  0  0  0  0 
    8.4195   -0.2632    3.3506 H   0  0  0  0  0  0  0  0  0  0  0  0 
    2.3011   -2.1921    0.0696 H   0  0  0  0  0  0  0  0  0  0  0  0 
    2.2086    2.0970   -0.0755 H   0  0  0  0  0  0  0  0  0  0  0  0 
    4.7787   -2.1301    0.1688 H   0  0  0  0  0  0  0  0  0  0  0  0 
    4.6699    2.1520    0.0232 H   0  0  0  0  0  0  0  0  0  0  0  0 
    6.7247    0.9695    0.6730 H   0  0  0  0  0  0  0  0  0  0  0  0 
    6.7764    0.2297   -0.9202 H   0  0  0  0  0  0  0  0  0  0  0  0 
    9.0212   -2.3764    2.5124 H   0  0  0  0  0  0  0  0  0  0  0  0 
  1  8  1  0  0  0  0 
  1 13  1  0  0  0  0 
  1 15  1  0  0  0  0 
  2 18  1  0  0  0  0 
  3 19  1  0  0  0  0 
  3  5  2  0  0  0  0 
  4  8  2  0  0  0  0 
  4  6  1  0  0  0  0 
  5 21  1  0  0  0  0 
  6 22  1  0  0  0  0 
  6 10  2  0  0  0  0 
  7 11  1  0  0  0  0 
  7 23  1  0  0  0  0 
  8  3  1  0  0  0  0 
  9 12  1  0  0  0  0 
  9  2  1  0  0  0  0 
 10  5  1  0  0  0  0 
 10  7  1  0  0  0  0 
 11  9  2  0  0  0  0 
 12 25  1  0  0  0  0 
 14  1  1  0  0  0  0 
 16  2  1  0  0  0  0 
 17  2  1  0  0  0  0 
 20  4  1  0  0  0  0 
 24  7  1  0  0  0  0 
M  END 
>  <HBA> 
2 
 
>  <HBD> 
1 
 
>  <TPSA> 
29.1 
 
>  <cid> 
32782 
 
>  <dipole> 
3.5 
 
>  <excitation_energy_1> 
5.134 
 
>  <excitation_energy_2> 
5.411 
 
>  <excitation_energy_3> 
5.624 
 
>  <excitation_energy_4> 
5.675 
 
>  <homo_energy> 
-5.997 
 
>  <homo_lumo_gap> 
6.264 
 
>  <logP> 
2.022 
 
>  <lumo_energy> 
0.267 
 
>  <melting_point> 
59.23 
 
>  <molecular_refractivity> 
48.99 
 
>  <oscillator_strength_1> 
0.0041 
 
>  <oscillator_strength_2> 
0.0008 
 
>  <oscillator_strength_3> 
0.0083 
 
>  <oscillator_strength_4> 
0.055 
 
>  <open_babel_can_smiles> 
Cc1ccc(cc1)C/N=C(/O)\C 
 
>  <mulliken_charges> 
25 
1   -0.529249 
2   -0.557798 
3   -0.18629 
4   -0.181921 
5   -0.165499 
6   -0.178497 
7   -0.214414 
8   0.18029 
9   0.491508 
10   0.137056 
11   -0.405985 
12   -0.57722 
13   0.154433 
14   0.162372 
15   0.153055 
16   0.183973 
17   0.176051 
18   0.172708 
19   0.117781 
20   0.115307 
21   0.154685 
22   0.111363 
23   0.119464 
24   0.163943 
25   0.402883 
 
>  <lowdin_charges> 
25 
1   -0.442799 
2   -0.479843 
3   -0.167189 
4   -0.169191 
5   -0.160352 
6   -0.170391 
7   -0.194878 
8   -0.003766 
9   0.13146 
10   -0.014653 
11   -0.196588 
12   -0.373282 
13   0.157022 
14   0.15864 
15   0.15652 
16   0.172777 
17   0.168069 
18   0.166415 
19   0.152108 
20   0.151369 
21   0.171759 
22   0.149138 
23   0.127925 
24   0.156691 
25   0.353038 
 
$$$$ 
 
