PCCDB-ID:  21780 
public computational chemistry database (PCCDB) project, http://pccdb.org 
 
 29 30  0  0  0  0  0  0  0  0999 V2000 
    0.5875    0.0747   -0.6287 C   0  0  0  0  0  0  0  0  0  0  0  0 
    5.6057    0.0277   -0.2361 C   0  0  0  0  0  0  0  0  0  0  0  0 
    2.3287   -1.7733    0.0044 C   0  0  0  0  0  0  0  0  0  0  0  0 
    3.7529   -1.7873    0.1134 C   0  0  0  0  0  0  0  0  0  0  0  0 
    3.9426    4.9639    0.1513 C   0  0  0  0  0  0  0  0  0  0  0  0 
    2.8182    4.2882   -1.8554 C   0  0  0  0  0  0  0  0  0  0  0  0 
    4.0194    6.2456   -0.3898 C   0  0  0  0  0  0  0  0  0  0  0  0 
    2.9408    5.6065   -2.2987 C   0  0  0  0  0  0  0  0  0  0  0  0 
    1.9367   -0.5140   -0.3809 C   0  0  0  0  0  0  0  0  0  0  0  0 
    4.2240   -0.5365   -0.2044 C   0  0  0  0  0  0  0  0  0  0  0  0 
    3.3400    3.9516   -0.6013 C   0  0  0  0  0  0  0  0  0  0  0  0 
    3.2639    2.5759    0.0064 C   0  0  0  0  0  0  0  0  0  0  0  0 
    3.5347    6.5764   -1.5949 N   0  0  0  0  0  0  0  0  0  0  0  0 
    3.1331    1.5486   -0.9140 N   0  0  0  0  0  0  0  0  0  0  0  0 
    3.1041    0.2325   -0.5125 N   0  0  0  0  0  0  0  0  0  0  0  0 
    3.3100    2.3895    1.2089 O   0  0  0  0  0  0  0  0  0  0  0  0 
   -0.1758   -0.6941   -0.4807 H   0  0  0  0  0  0  0  0  0  0  0  0 
    0.4775    0.4607   -1.6510 H   0  0  0  0  0  0  0  0  0  0  0  0 
    0.3675    0.9026    0.0575 H   0  0  0  0  0  0  0  0  0  0  0  0 
    6.3223   -0.7530    0.0333 H   0  0  0  0  0  0  0  0  0  0  0  0 
    5.7240    0.8534    0.4769 H   0  0  0  0  0  0  0  0  0  0  0  0 
    5.8877    0.4047   -1.2292 H   0  0  0  0  0  0  0  0  0  0  0  0 
    1.6585   -2.6007    0.1970 H   0  0  0  0  0  0  0  0  0  0  0  0 
    4.3695   -2.6264    0.4078 H   0  0  0  0  0  0  0  0  0  0  0  0 
    4.3343    4.7390    1.1374 H   0  0  0  0  0  0  0  0  0  0  0  0 
    2.2919    3.5632   -2.4692 H   0  0  0  0  0  0  0  0  0  0  0  0 
    4.4925    7.0494    0.1710 H   0  0  0  0  0  0  0  0  0  0  0  0 
    2.5366    5.8957   -3.2672 H   0  0  0  0  0  0  0  0  0  0  0  0 
    3.3549    1.7149   -1.8880 H   0  0  0  0  0  0  0  0  0  0  0  0 
  1 17  1  0  0  0  0 
  1  9  1  0  0  0  0 
  1 19  1  0  0  0  0 
  2 10  1  0  0  0  0 
  2 20  1  0  0  0  0 
  2 21  1  0  0  0  0 
  3  4  1  0  0  0  0 
  3 23  1  0  0  0  0 
  4 24  1  0  0  0  0 
  5 25  1  0  0  0  0 
  6 11  1  0  0  0  0 
  7  5  1  0  0  0  0 
  7 27  1  0  0  0  0 
  8  6  2  0  0  0  0 
  8 13  1  0  0  0  0 
  9  3  2  0  0  0  0 
 10  4  2  0  0  0  0 
 11 12  1  0  0  0  0 
 11  5  2  0  0  0  0 
 12 16  2  0  0  0  0 
 13  7  2  0  0  0  0 
 14 15  1  0  0  0  0 
 14 12  1  0  0  0  0 
 15  9  1  0  0  0  0 
 15 10  1  0  0  0  0 
 18  1  1  0  0  0  0 
 22  2  1  0  0  0  0 
 26  6  1  0  0  0  0 
 28  8  1  0  0  0  0 
 29 14  1  0  0  0  0 
M  END 
>  <HBA> 
4 
 
>  <HBD> 
1 
 
>  <TPSA> 
46.92 
 
>  <cid> 
21780 
 
>  <dipole> 
2.69 
 
>  <excitation_energy_1> 
2.855 
 
>  <excitation_energy_2> 
3.944 
 
>  <excitation_energy_3> 
3.975 
 
>  <excitation_energy_4> 
4.297 
 
>  <homo_energy> 
-5.325 
 
>  <homo_lumo_gap> 
3.546 
 
>  <logP> 
1.957 
 
>  <lumo_energy> 
-1.78 
 
>  <melting_point> 
119.96 
 
>  <molecular_refractivity> 
62.11 
 
>  <oscillator_strength_1> 
0.0001 
 
>  <oscillator_strength_2> 
0.0007 
 
>  <oscillator_strength_3> 
0.0002 
 
>  <oscillator_strength_4> 
0.0029 
 
>  <open_babel_can_smiles> 
O=C(c1ccncc1)Nn1c(C)ccc1C 
 
>  <mulliken_charges> 
29 
1   -0.520681 
2   -0.531765 
3   -0.229419 
4   -0.231501 
5   -0.162675 
6   -0.192189 
7   0.03634 
8   0.039688 
9   0.34826 
10   0.352995 
11   0.084268 
12   0.58831 
13   -0.3969 
14   -0.526896 
15   -0.359692 
16   -0.480426 
17   0.167199 
18   0.146767 
19   0.171652 
20   0.169472 
21   0.178178 
22   0.144644 
23   0.119388 
24   0.119736 
25   0.173061 
26   0.143046 
27   0.153331 
28   0.150367 
29   0.345444 
 
>  <lowdin_charges> 
29 
1   -0.440497 
2   -0.444239 
3   -0.223575 
4   -0.222142 
5   -0.148617 
6   -0.184413 
7   -0.085296 
8   -0.084116 
9   0.006726 
10   0.005255 
11   -0.017651 
12   0.159839 
13   -0.135977 
14   -0.206198 
15   0.028806 
16   -0.262641 
17   0.169442 
18   0.151465 
19   0.164885 
20   0.171064 
21   0.167315 
22   0.150235 
23   0.1594 
24   0.15946 
25   0.183265 
26   0.166154 
27   0.164556 
28   0.160902 
29   0.286592 
 
$$$$ 
 
