PCCDB-ID:  25185 
public computational chemistry database (PCCDB) project, http://pccdb.org 
 
 32 31  0  0  1  0  0  0  0  0999 V2000 
    5.3159   -2.1598   -0.8748 C   0  0  0  0  0  0  0  0  0  0  0  0 
    8.7868    4.2075    3.4780 C   0  0  0  0  0  0  0  0  0  0  0  0 
    4.1543   -1.6950    2.0905 C   0  0  0  0  0  0  0  0  0  0  0  0 
    6.3819    2.1065    5.1958 C   0  0  0  0  0  0  0  0  0  0  0  0 
    4.2207   -1.1802   -0.4147 C   0  0  0  0  0  0  0  0  0  0  0  0 
    8.2571    3.0391    3.8390 C   0  0  0  0  0  0  0  0  0  0  0  0 
    5.0026    1.3084    2.5320 C   0  0  0  0  0  0  0  0  0  0  0  0 
    4.7496    0.6045    1.2250 C   0  0  0  0  0  0  0  0  0  0  0  0 
    6.4714    1.7649    2.6543 C   0  0  0  0  0  0  0  0  0  0  0  0 
    4.4015   -0.6737    1.0050 C   0  0  0  0  0  0  0  0  0  0  0  0 
    6.7726    2.7160    3.8353 C   0  0  1  0  0  0  0  0  0  0  0  0 
    5.9881    3.8895    3.5899 O   0  0  0  0  0  0  0  0  0  0  0  0 
    5.1429   -2.4780   -1.9094 H   0  0  0  0  0  0  0  0  0  0  0  0 
    5.3443   -3.0619   -0.2535 H   0  0  0  0  0  0  0  0  0  0  0  0 
    6.3040   -1.6883   -0.8250 H   0  0  0  0  0  0  0  0  0  0  0  0 
    9.8593    4.3785    3.5032 H   0  0  0  0  0  0  0  0  0  0  0  0 
    8.1630    5.0255    3.1283 H   0  0  0  0  0  0  0  0  0  0  0  0 
    4.8114   -2.5669    1.9749 H   0  0  0  0  0  0  0  0  0  0  0  0 
    3.1241   -2.0745    2.0350 H   0  0  0  0  0  0  0  0  0  0  0  0 
    4.3087   -1.2982    3.0965 H   0  0  0  0  0  0  0  0  0  0  0  0 
    6.9092    1.1630    5.3798 H   0  0  0  0  0  0  0  0  0  0  0  0 
    5.3055    1.9192    5.2399 H   0  0  0  0  0  0  0  0  0  0  0  0 
    6.6431    2.7946    6.0097 H   0  0  0  0  0  0  0  0  0  0  0  0 
    3.2438   -1.6804   -0.5009 H   0  0  0  0  0  0  0  0  0  0  0  0 
    4.1940   -0.3272   -1.1035 H   0  0  0  0  0  0  0  0  0  0  0  0 
    8.9078    2.2269    4.1654 H   0  0  0  0  0  0  0  0  0  0  0  0 
    4.7355    0.6700    3.3798 H   0  0  0  0  0  0  0  0  0  0  0  0 
    4.3646    2.1997    2.5936 H   0  0  0  0  0  0  0  0  0  0  0  0 
    4.8916    1.2380    0.3465 H   0  0  0  0  0  0  0  0  0  0  0  0 
    6.7640    2.2936    1.7391 H   0  0  0  0  0  0  0  0  0  0  0  0 
    7.1243    0.8858    2.7298 H   0  0  0  0  0  0  0  0  0  0  0  0 
    6.1645    4.5084    4.3171 H   0  0  0  0  0  0  0  0  0  0  0  0 
  1 15  1  0  0  0  0 
  1  5  1  0  0  0  0 
  1 14  1  0  0  0  0 
  2 16  1  0  0  0  0 
  2  6  2  0  0  0  0 
  3 20  1  0  0  0  0 
  4 22  1  0  0  0  0 
  4 21  1  0  0  0  0 
  4 23  1  0  0  0  0 
  5 10  1  0  0  0  0 
  6 26  1  0  0  0  0 
  7 28  1  0  0  0  0 
  7  9  1  0  0  0  0 
  7 27  1  0  0  0  0 
  8  7  1  0  0  0  0 
  9 31  1  0  0  0  0 
  9 11  1  0  0  0  0 
 10  8  2  0  0  0  0 
 10  3  1  0  0  0  0 
 11 12  1  6  0  0  0 
 11  6  1  0  0  0  0 
 11  4  1  0  0  0  0 
 12 32  1  0  0  0  0 
 13  1  1  0  0  0  0 
 17  2  1  0  0  0  0 
 18  3  1  0  0  0  0 
 19  3  1  0  0  0  0 
 24  5  1  0  0  0  0 
 25  5  1  0  0  0  0 
 29  8  1  0  0  0  0 
 30  9  1  0  0  0  0 
M  END 
>  <HBA> 
1 
 
>  <HBD> 
1 
 
>  <TPSA> 
20.23 
 
>  <cid> 
25185 
 
>  <dipole> 
1.47 
 
>  <excitation_energy_1> 
5.529 
 
>  <excitation_energy_2> 
5.708 
 
>  <excitation_energy_3> 
5.841 
 
>  <excitation_energy_4> 
6.113 
 
>  <homo_energy> 
-6.06 
 
>  <homo_lumo_gap> 
6.55 
 
>  <logP> 
3.06 
 
>  <lumo_energy> 
0.49 
 
>  <melting_point> 
-7.63 
 
>  <molecular_refractivity> 
55.24 
 
>  <oscillator_strength_1> 
0.0113 
 
>  <oscillator_strength_2> 
0.0978 
 
>  <oscillator_strength_3> 
0.0536 
 
>  <oscillator_strength_4> 
0.003 
 
>  <open_babel_can_smiles> 
CC/C(=C/CC[C@@](C=C)(O)C)/C 
 
>  <mulliken_charges> 
32 
1   -0.439983 
2   -0.352263 
3   -0.521019 
4   -0.473727 
5   -0.318148 
6   -0.07505 
7   -0.310887 
8   -0.174391 
9   -0.255305 
10   0.192674 
11   0.280924 
12   -0.642612 
13   0.142109 
14   0.143157 
15   0.147619 
16   0.139026 
17   0.144707 
18   0.153283 
19   0.150926 
20   0.152542 
21   0.142713 
22   0.162619 
23   0.138766 
24   0.132228 
25   0.138981 
26   0.123512 
27   0.133862 
28   0.164743 
29   0.112596 
30   0.149412 
31   0.131063 
32   0.385924 
 
>  <lowdin_charges> 
32 
1   -0.442931 
2   -0.344936 
3   -0.444537 
4   -0.458136 
5   -0.269169 
6   -0.16589 
7   -0.27949 
8   -0.188092 
9   -0.274242 
10   -0.016639 
11   0.121467 
12   -0.454952 
13   0.148338 
14   0.146288 
15   0.148982 
16   0.157766 
17   0.161045 
18   0.154813 
19   0.153543 
20   0.153733 
21   0.152741 
22   0.157168 
23   0.149134 
24   0.141427 
25   0.146974 
26   0.153641 
27   0.143659 
28   0.160482 
29   0.145679 
30   0.154468 
31   0.14565 
32   0.342016 
 
$$$$ 
 
