PCCDB-ID:  11448 
public computational chemistry database (PCCDB) project, http://pccdb.org 
 
 24 23  0  0  0  0  0  0  0  0999 V2000 
    3.7708   -1.0256   -0.6603 C   0  0  0  0  0  0  0  0  0  0  0  0 
    1.3945   -0.3978   -0.1482 C   0  0  0  0  0  0  0  0  0  0  0  0 
    4.9612    3.2382    1.6312 C   0  0  0  0  0  0  0  0  0  0  0  0 
    4.9326    1.4769    3.4697 C   0  0  0  0  0  0  0  0  0  0  0  0 
    6.8071    1.5284    1.7842 C   0  0  0  0  0  0  0  0  0  0  0  0 
    2.8874   -0.2756    0.0103 C   0  0  0  0  0  0  0  0  0  0  0  0 
    3.3288    0.7645    0.9967 C   0  0  0  0  0  0  0  0  0  0  0  0 
    5.3193    1.8004    2.0225 C   0  0  0  0  0  0  0  0  0  0  0  0 
    2.5322    1.4445    1.6197 O   0  0  0  0  0  0  0  0  0  0  0  0 
    4.6697    0.8480    1.1036 O   0  0  0  0  0  0  0  0  0  0  0  0 
    3.4407   -1.7788   -1.3712 H   0  0  0  0  0  0  0  0  0  0  0  0 
    4.8389   -0.9084   -0.5188 H   0  0  0  0  0  0  0  0  0  0  0  0 
    1.1415   -1.1801   -0.8695 H   0  0  0  0  0  0  0  0  0  0  0  0 
    0.9577    0.5487   -0.4863 H   0  0  0  0  0  0  0  0  0  0  0  0 
    0.9169   -0.6317    0.8098 H   0  0  0  0  0  0  0  0  0  0  0  0 
    5.5528    3.9378    2.2326 H   0  0  0  0  0  0  0  0  0  0  0  0 
    3.9023    3.4411    1.7968 H   0  0  0  0  0  0  0  0  0  0  0  0 
    5.1961    3.4151    0.5759 H   0  0  0  0  0  0  0  0  0  0  0  0 
    5.5107    2.1094    4.1529 H   0  0  0  0  0  0  0  0  0  0  0  0 
    5.1612    0.4305    3.7001 H   0  0  0  0  0  0  0  0  0  0  0  0 
    3.8701    1.6537    3.6430 H   0  0  0  0  0  0  0  0  0  0  0  0 
    7.4161    2.1790    2.4206 H   0  0  0  0  0  0  0  0  0  0  0  0 
    7.0728    1.7191    0.7392 H   0  0  0  0  0  0  0  0  0  0  0  0 
    7.0523    0.4872    2.0181 H   0  0  0  0  0  0  0  0  0  0  0  0 
  1 12  1  0  0  0  0 
  1  6  2  0  0  0  0 
  2  6  1  0  0  0  0 
  2 15  1  0  0  0  0 
  3 17  1  0  0  0  0 
  3  8  1  0  0  0  0 
  3 16  1  0  0  0  0 
  4 21  1  0  0  0  0 
  4 20  1  0  0  0  0 
  4 19  1  0  0  0  0 
  5 24  1  0  0  0  0 
  5  8  1  0  0  0  0 
  5 22  1  0  0  0  0 
  6  7  1  0  0  0  0 
  7 10  1  0  0  0  0 
  7  9  2  0  0  0  0 
  8  4  1  0  0  0  0 
 10  8  1  0  0  0  0 
 11  1  1  0  0  0  0 
 13  2  1  0  0  0  0 
 14  2  1  0  0  0  0 
 18  3  1  0  0  0  0 
 23  5  1  0  0  0  0 
M  END 
>  <HBA> 
2 
 
>  <HBD> 
0 
 
>  <TPSA> 
26.3 
 
>  <cid> 
11448 
 
>  <dipole> 
1.75 
 
>  <excitation_energy_1> 
4.658 
 
>  <excitation_energy_2> 
5.79 
 
>  <excitation_energy_3> 
6.353 
 
>  <excitation_energy_4> 
6.753 
 
>  <homo_energy> 
-7.094 
 
>  <homo_lumo_gap> 
6.147 
 
>  <logP> 
1.904 
 
>  <lumo_energy> 
-0.947 
 
>  <melting_point> 
-21.61 
 
>  <molecular_refractivity> 
41.42 
 
>  <oscillator_strength_1> 
0.0 
 
>  <oscillator_strength_2> 
0.1998 
 
>  <oscillator_strength_3> 
0.1186 
 
>  <oscillator_strength_4> 
0.0052 
 
>  <open_babel_can_smiles> 
CC(=C)C(=O)OC(C)(C)C 
 
>  <mulliken_charges> 
24 
1   -0.370571 
2   -0.499264 
3   -0.465747 
4   -0.46588 
5   -0.45133 
6   0.129727 
7   0.607472 
8   0.312613 
9   -0.494516 
10   -0.511209 
11   0.145623 
12   0.168435 
13   0.14529 
14   0.170987 
15   0.171747 
16   0.142318 
17   0.187176 
18   0.147789 
19   0.142606 
20   0.14775 
21   0.186688 
22   0.145901 
23   0.153228 
24   0.153166 
 
>  <lowdin_charges> 
24 
1   -0.304161 
2   -0.436025 
3   -0.455452 
4   -0.455557 
5   -0.444211 
6   -0.028064 
7   0.199098 
8   0.145962 
9   -0.276995 
10   -0.19521 
11   0.162286 
12   0.17179 
13   0.155129 
14   0.167781 
15   0.168068 
16   0.155831 
17   0.171088 
18   0.152851 
19   0.155996 
20   0.152905 
21   0.170817 
22   0.155979 
23   0.155038 
24   0.155055 
 
$$$$ 
 
