PCCDB-ID:  69574 
public computational chemistry database (PCCDB) project, http://pccdb.org 
 
 15 15  0  0  0  0  0  0  0  0999 V2000 
   -0.7508    1.1805    0.0029 C   0  0  0  0  0  0  0  0  0  0  0  0 
    1.4212    0.0718    0.0399 C   0  0  0  0  0  0  0  0  0  0  0  0 
   -1.3699   -0.0574    0.0490 C   0  0  0  0  0  0  0  0  0  0  0  0 
    0.7959   -1.1574    0.0850 C   0  0  0  0  0  0  0  0  0  0  0  0 
    0.6578    1.2652   -0.0027 C   0  0  0  0  0  0  0  0  0  0  0  0 
   -0.6090   -1.2349    0.0897 C   0  0  0  0  0  0  0  0  0  0  0  0 
    1.2879    2.4902   -0.0036 N   0  0  0  0  0  0  0  0  0  0  0  0 
   -1.3418   -2.4518    0.1306 N   0  0  0  0  0  0  0  0  0  0  0  0 
   -0.6596   -3.4754    0.1645 O   0  0  0  0  0  0  0  0  0  0  0  0 
   -1.3419    2.0925   -0.0267 H   0  0  0  0  0  0  0  0  0  0  0  0 
    2.5070    0.1374    0.0387 H   0  0  0  0  0  0  0  0  0  0  0  0 
   -2.4527   -0.1445    0.0518 H   0  0  0  0  0  0  0  0  0  0  0  0 
    1.3616   -2.0831    0.1157 H   0  0  0  0  0  0  0  0  0  0  0  0 
    0.7521    3.2949   -0.2976 H   0  0  0  0  0  0  0  0  0  0  0  0 
    2.2601    2.5186   -0.2776 H   0  0  0  0  0  0  0  0  0  0  0  0 
  1  3  1  0  0  0  0 
  2  4  2  0  0  0  0 
  3 12  1  0  0  0  0 
  3  6  2  0  0  0  0 
  4  6  1  0  0  0  0 
  4 13  1  0  0  0  0 
  5  1  2  0  0  0  0 
  5  2  1  0  0  0  0 
  6  8  1  0  0  0  0 
  7  5  1  0  0  0  0 
  8  9  2  0  0  0  0 
 10  1  1  0  0  0  0 
 11  2  1  0  0  0  0 
 14  7  1  0  0  0  0 
 15  7  1  0  0  0  0 
M  END 
>  <HBA> 
3 
 
>  <HBD> 
1 
 
>  <TPSA> 
55.45 
 
>  <cid> 
69574 
 
>  <dipole> 
6.59 
 
>  <excitation_energy_1> 
1.613 
 
>  <excitation_energy_2> 
3.866 
 
>  <excitation_energy_3> 
4.113 
 
>  <excitation_energy_4> 
4.276 
 
>  <homo_energy> 
-5.402 
 
>  <homo_lumo_gap> 
3.301 
 
>  <logP> 
2.248 
 
>  <lumo_energy> 
-2.101 
 
>  <melting_point> 
80.56 
 
>  <molecular_refractivity> 
36.3 
 
>  <oscillator_strength_1> 
0.0003 
 
>  <oscillator_strength_2> 
0.3592 
 
>  <oscillator_strength_3> 
0.0001 
 
>  <oscillator_strength_4> 
0.0121 
 
>  <open_babel_can_smiles> 
O=Nc1ccc(cc1)N 
 
>  <mulliken_charges> 
15 
1   -0.187621 
2   -0.185139 
3   -0.129671 
4   -0.128129 
5   0.35592 
6   0.215304 
7   -0.7924 
8   -0.079205 
9   -0.318887 
10   0.130091 
11   0.131531 
12   0.152764 
13   0.162201 
14   0.336573 
15   0.33667 
 
>  <lowdin_charges> 
15 
1   -0.205132 
2   -0.191034 
3   -0.115233 
4   -0.121774 
5   0.086804 
6   -0.047781 
7   -0.458397 
8   0.030105 
9   -0.214481 
10   0.159074 
11   0.1563 
12   0.171295 
13   0.177825 
14   0.287239 
15   0.285189 
 
$$$$ 
 
