PCCDB-ID:  70965 
public computational chemistry database (PCCDB) project, http://pccdb.org 
 
 22 23  0  0  0  0  0  0  0  0999 V2000 
    1.0286    0.0167    0.0916 C   0  0  0  0  0  0  0  0  0  0  0  0 
    8.1539   -2.4035   -0.6143 C   0  0  0  0  0  0  0  0  0  0  0  0 
    3.2918    1.1579   -0.0518 C   0  0  0  0  0  0  0  0  0  0  0  0 
    4.6790    1.1563   -0.1659 C   0  0  0  0  0  0  0  0  0  0  0  0 
    3.1936   -1.2614   -0.1486 C   0  0  0  0  0  0  0  0  0  0  0  0 
    5.5602   -2.3580   -0.3923 C   0  0  0  0  0  0  0  0  0  0  0  0 
    2.5360   -0.0357   -0.0407 C   0  0  0  0  0  0  0  0  0  0  0  0 
    6.8030   -1.7801   -0.4710 C   0  0  0  0  0  0  0  0  0  0  0  0 
    4.5916   -1.3038   -0.2643 C   0  0  0  0  0  0  0  0  0  0  0  0 
    5.3172   -0.0801   -0.2710 C   0  0  0  0  0  0  0  0  0  0  0  0 
    6.6558   -0.4015   -0.3981 N   0  0  0  0  0  0  0  0  0  0  0  0 
    0.6650    1.0494    0.1038 H   0  0  0  0  0  0  0  0  0  0  0  0 
    0.6864   -0.4636    1.0175 H   0  0  0  0  0  0  0  0  0  0  0  0 
    0.5313   -0.4995   -0.7391 H   0  0  0  0  0  0  0  0  0  0  0  0 
    8.0635   -3.4925   -0.6462 H   0  0  0  0  0  0  0  0  0  0  0  0 
    8.8137   -2.1478    0.2259 H   0  0  0  0  0  0  0  0  0  0  0  0 
    8.6577   -2.0818   -1.5358 H   0  0  0  0  0  0  0  0  0  0  0  0 
    2.7709    2.1088    0.0308 H   0  0  0  0  0  0  0  0  0  0  0  0 
    5.2390    2.0882   -0.1738 H   0  0  0  0  0  0  0  0  0  0  0  0 
    2.6204   -2.1866   -0.1424 H   0  0  0  0  0  0  0  0  0  0  0  0 
    5.3625   -3.4214   -0.4218 H   0  0  0  0  0  0  0  0  0  0  0  0 
    7.4141    0.2622   -0.4336 H   0  0  0  0  0  0  0  0  0  0  0  0 
  1 12  1  0  0  0  0 
  1 13  1  0  0  0  0 
  2  8  1  0  0  0  0 
  2 16  1  0  0  0  0 
  3  7  1  0  0  0  0 
  3 18  1  0  0  0  0 
  4  3  2  0  0  0  0 
  5 20  1  0  0  0  0 
  5  7  2  0  0  0  0 
  6  9  1  0  0  0  0 
  7  1  1  0  0  0  0 
  8 11  1  0  0  0  0 
  8  6  2  0  0  0  0 
  9  5  1  0  0  0  0 
 10  9  2  0  0  0  0 
 10  4  1  0  0  0  0 
 11 10  1  0  0  0  0 
 14  1  1  0  0  0  0 
 15  2  1  0  0  0  0 
 17  2  1  0  0  0  0 
 19  4  1  0  0  0  0 
 21  6  1  0  0  0  0 
 22 11  1  0  0  0  0 
M  END 
>  <HBA> 
0 
 
>  <HBD> 
1 
 
>  <TPSA> 
15.79 
 
>  <cid> 
70965 
 
>  <dipole> 
2.29 
 
>  <excitation_energy_1> 
4.648 
 
>  <excitation_energy_2> 
4.649 
 
>  <excitation_energy_3> 
4.706 
 
>  <excitation_energy_4> 
4.972 
 
>  <homo_energy> 
-5.208 
 
>  <homo_lumo_gap> 
5.222 
 
>  <logP> 
2.785 
 
>  <lumo_energy> 
0.014 
 
>  <melting_point> 
104.6 
 
>  <molecular_refractivity> 
48.23 
 
>  <oscillator_strength_1> 
0.0729 
 
>  <oscillator_strength_2> 
0.0024 
 
>  <oscillator_strength_3> 
0.0664 
 
>  <oscillator_strength_4> 
0.0001 
 
>  <open_babel_can_smiles> 
Cc1ccc2c(c1)cc([nH]2)C 
 
>  <mulliken_charges> 
22 
1   -0.529394 
2   -0.535015 
3   -0.20722 
4   -0.168264 
5   -0.269126 
6   -0.274175 
7   0.175898 
8   0.355555 
9   0.128736 
10   0.321496 
11   -0.735431 
12   0.148326 
13   0.156383 
14   0.155324 
15   0.172892 
16   0.16148 
17   0.161934 
18   0.112328 
19   0.116068 
20   0.1134 
21   0.120086 
22   0.31872 
 
>  <lowdin_charges> 
22 
1   -0.442388 
2   -0.44374 
3   -0.177697 
4   -0.191081 
5   -0.174613 
6   -0.240238 
7   -0.015966 
8   0.036692 
9   -0.022549 
10   0.030855 
11   -0.216015 
12   0.151989 
13   0.156461 
14   0.156927 
15   0.168686 
16   0.160328 
17   0.160163 
18   0.151109 
19   0.153362 
20   0.151905 
21   0.157794 
22   0.288017 
 
$$$$ 
 
