PCCDB-ID:  24869 
public computational chemistry database (PCCDB) project, http://pccdb.org 
 
 16 16  0  0  1  0  0  0  0  0999 V2000 
    1.1023    0.1882   -0.2913 C   0  0  0  0  0  0  0  0  0  0  0  0 
    3.6124   -1.1391   -1.7876 C   0  0  0  0  0  0  0  0  0  0  0  0 
    3.1963   -1.2923   -0.3518 C   0  0  0  0  0  0  0  0  0  0  0  0 
    3.8722    0.0717   -2.2947 C   0  0  0  0  0  0  0  0  0  0  0  0 
    2.5475   -0.0022    0.1683 C   0  0  1  0  0  0  0  0  0  0  0  0 
    3.8312    1.2913   -1.4537 C   0  0  0  0  0  0  0  0  0  0  0  0 
    4.2681    2.3603   -1.8179 O   0  0  0  0  0  0  0  0  0  0  0  0 
    3.3321    1.1651   -0.1907 O   0  0  0  0  0  0  0  0  0  0  0  0 
    0.4646   -0.5986    0.1277 H   0  0  0  0  0  0  0  0  0  0  0  0 
    1.0201    0.1532   -1.3824 H   0  0  0  0  0  0  0  0  0  0  0  0 
    0.7278    1.1565    0.0530 H   0  0  0  0  0  0  0  0  0  0  0  0 
    3.7232   -2.0323   -2.3996 H   0  0  0  0  0  0  0  0  0  0  0  0 
    4.0767   -1.5478    0.2563 H   0  0  0  0  0  0  0  0  0  0  0  0 
    2.4924   -2.1254   -0.2357 H   0  0  0  0  0  0  0  0  0  0  0  0 
    4.1949    0.2277   -3.3186 H   0  0  0  0  0  0  0  0  0  0  0  0 
    2.5760    0.0035    1.2617 H   0  0  0  0  0  0  0  0  0  0  0  0 
  1 11  1  0  0  0  0 
  1  9  1  0  0  0  0 
  1  5  1  0  0  0  0 
  2  3  1  0  0  0  0 
  3 14  1  0  0  0  0 
  3  5  1  0  0  0  0 
  3 13  1  0  0  0  0 
  4  2  2  0  0  0  0 
  4  6  1  0  0  0  0 
  5 16  1  1  0  0  0 
  6  8  1  0  0  0  0 
  7  6  2  0  0  0  0 
  8  5  1  0  0  0  0 
 10  1  1  0  0  0  0 
 12  2  1  0  0  0  0 
 15  4  1  0  0  0  0 
M  END 
>  <HBA> 
2 
 
>  <HBD> 
0 
 
>  <TPSA> 
26.3 
 
>  <cid> 
24869 
 
>  <dipole> 
5.04 
 
>  <excitation_energy_1> 
4.456 
 
>  <excitation_energy_2> 
5.674 
 
>  <excitation_energy_3> 
6.109 
 
>  <excitation_energy_4> 
6.317 
 
>  <homo_energy> 
-7.108 
 
>  <homo_lumo_gap> 
5.859 
 
>  <logP> 
0.878 
 
>  <lumo_energy> 
-1.249 
 
>  <melting_point> 
18.25 
 
>  <molecular_refractivity> 
29.65 
 
>  <oscillator_strength_1> 
0.0004 
 
>  <oscillator_strength_2> 
0.0136 
 
>  <oscillator_strength_3> 
0.2275 
 
>  <oscillator_strength_4> 
0.0357 
 
>  <open_babel_can_smiles> 
C[C@H]1CC=CC(=O)O1 
 
>  <mulliken_charges> 
16 
1   -0.457336 
2   -0.10444 
3   -0.324801 
4   -0.169162 
5   0.117451 
6   0.594404 
7   -0.461961 
8   -0.471513 
9   0.147402 
10   0.159846 
11   0.173412 
12   0.152609 
13   0.174803 
14   0.158618 
15   0.158714 
16   0.151954 
 
>  <lowdin_charges> 
16 
1   -0.457054 
2   -0.123171 
3   -0.291057 
4   -0.202887 
5   0.014542 
6   0.190238 
7   -0.241462 
8   -0.198012 
9   0.156982 
10   0.156778 
11   0.166978 
12   0.166078 
13   0.168755 
14   0.164005 
15   0.17731 
16   0.151978 
 
$$$$ 
 
