PCCDB-ID:  50146 
public computational chemistry database (PCCDB) project, http://pccdb.org 
 
 27 28  0  0  0  0  0  0  0  0999 V2000 
    2.5650    0.4906   -0.1370 C   0  0  0  0  0  0  0  0  0  0  0  0 
    2.3359   -0.9060   -0.0930 C   0  0  0  0  0  0  0  0  0  0  0  0 
    1.5070    1.3702   -0.0601 C   0  0  0  0  0  0  0  0  0  0  0  0 
    1.0563   -1.4035    0.0272 C   0  0  0  0  0  0  0  0  0  0  0  0 
   -0.9584    1.7342    0.1492 C   0  0  0  0  0  0  0  0  0  0  0  0 
   -2.2073    1.1817    0.2687 C   0  0  0  0  0  0  0  0  0  0  0  0 
   -3.7230   -0.8470    0.4010 C   0  0  0  0  0  0  0  0  0  0  0  0 
    0.1795    0.8879    0.0636 C   0  0  0  0  0  0  0  0  0  0  0  0 
   -2.3397   -0.2365    0.3013 C   0  0  0  0  0  0  0  0  0  0  0  0 
   -0.0513   -0.5220    0.1080 C   0  0  0  0  0  0  0  0  0  0  0  0 
   -4.7215   -3.0680    0.2945 C   0  0  0  0  0  0  0  0  0  0  0  0 
   -5.8359   -2.5434   -0.0757 N   0  0  0  0  0  0  0  0  0  0  0  0 
   -4.4138   -4.4383    0.3797 N   0  0  0  0  0  0  0  0  0  0  0  0 
   -3.6457   -2.2724    0.6384 N   0  0  0  0  0  0  0  0  0  0  0  0 
   -1.3067   -1.0512    0.2254 N   0  0  0  0  0  0  0  0  0  0  0  0 
    3.5800    0.8661   -0.2318 H   0  0  0  0  0  0  0  0  0  0  0  0 
    3.1793   -1.5882   -0.1556 H   0  0  0  0  0  0  0  0  0  0  0  0 
    1.6762    2.4440   -0.0928 H   0  0  0  0  0  0  0  0  0  0  0  0 
    0.8587   -2.4705    0.0609 H   0  0  0  0  0  0  0  0  0  0  0  0 
   -0.8248    2.8133    0.1207 H   0  0  0  0  0  0  0  0  0  0  0  0 
   -3.0946    1.8048    0.3385 H   0  0  0  0  0  0  0  0  0  0  0  0 
   -4.2868   -0.6361   -0.5211 H   0  0  0  0  0  0  0  0  0  0  0  0 
   -4.2843   -0.3534    1.2067 H   0  0  0  0  0  0  0  0  0  0  0  0 
   -6.5459   -3.2631   -0.2204 H   0  0  0  0  0  0  0  0  0  0  0  0 
   -5.2336   -5.0331    0.3755 H   0  0  0  0  0  0  0  0  0  0  0  0 
   -3.8022   -4.6706    1.1559 H   0  0  0  0  0  0  0  0  0  0  0  0 
   -2.7203   -2.6427    0.4409 H   0  0  0  0  0  0  0  0  0  0  0  0 
  1  2  2  0  0  0  0 
  1  3  1  0  0  0  0 
  2  4  1  0  0  0  0 
  3  8  2  0  0  0  0 
  4 19  1  0  0  0  0 
  4 10  2  0  0  0  0 
  5  6  2  0  0  0  0 
  6  9  1  0  0  0  0 
  6 21  1  0  0  0  0 
  7 14  1  0  0  0  0 
  7 23  1  0  0  0  0 
  8 10  1  0  0  0  0 
  8  5  1  0  0  0  0 
  9  7  1  0  0  0  0 
 10 15  1  0  0  0  0 
 11 13  2  0  0  0  0 
 11 14  1  0  0  0  0 
 12 11  1  0  0  0  0 
 13 26  1  0  0  0  0 
 15  9  2  0  0  0  0 
 16  1  1  0  0  0  0 
 17  2  1  0  0  0  0 
 18  3  1  0  0  0  0 
 20  5  1  0  0  0  0 
 22  7  1  0  0  0  0 
 24 12  1  0  0  0  0 
 25 13  1  0  0  0  0 
 27 14  1  0  0  0  0 
M  RAD  1  12   2 
M  END 
>  <HBA> 
4 
 
>  <HBD> 
2 
 
>  <TPSA> 
77.29 
 
>  <cid> 
50146 
 
>  <dipole> 
2.41 
 
>  <excitation_energy_1> 
3.89 
 
>  <excitation_energy_2> 
4.379 
 
>  <excitation_energy_3> 
4.487 
 
>  <excitation_energy_4> 
4.546 
 
>  <homo_energy> 
-5.774 
 
>  <homo_lumo_gap> 
4.346 
 
>  <logP> 
2.409 
 
>  <lumo_energy> 
-1.429 
 
>  <melting_point> 
193.69 
 
>  <molecular_refractivity> 
60.62 
 
>  <oscillator_strength_1> 
0.0338 
 
>  <oscillator_strength_2> 
0.0283 
 
>  <oscillator_strength_3> 
0.049 
 
>  <oscillator_strength_4> 
0.0012 
 
>  <open_babel_can_smiles> 
[NH]C(=[NH2])NCc1ccc2c(n1)cccc2 
 
>  <mulliken_charges> 
27 
1   -0.131695 
2   -0.137649 
3   -0.199084 
4   -0.144001 
5   -0.144463 
6   -0.180948 
7   -0.153161 
8   0.15119 
9   0.310476 
10   0.251475 
11   0.590776 
12   -0.655688 
13   -0.756214 
14   -0.619837 
15   -0.601476 
16   0.135016 
17   0.13608 
18   0.134288 
19   0.13972 
20   0.14327 
21   0.141732 
22   0.187568 
23   0.164117 
24   0.260775 
25   0.31583 
26   0.32023 
27   0.341674 
 
>  <lowdin_charges> 
27 
1   -0.155828 
2   -0.151169 
3   -0.152759 
4   -0.152658 
5   -0.120381 
6   -0.181963 
7   -0.195274 
8   -0.018588 
9   0.058506 
10   0.046306 
11   0.125986 
12   -0.492934 
13   -0.514296 
14   -0.307471 
15   -0.171294 
16   0.160256 
17   0.162469 
18   0.157606 
19   0.165467 
20   0.161989 
21   0.167692 
22   0.169254 
23   0.160391 
24   0.245035 
25   0.273985 
26   0.276964 
27   0.28271 
 
$$$$ 
 
