PCCDB-ID:  32153 
public computational chemistry database (PCCDB) project, http://pccdb.org 
 
 28 29  0  0  0  0  0  0  0  0999 V2000 
   -1.9167    0.4874   -0.3876 C   0  0  0  0  0  0  0  0  0  0  0  0 
   -1.3129    0.6890    0.8548 C   0  0  0  0  0  0  0  0  0  0  0  0 
   -1.1192    0.3021   -1.5183 C   0  0  0  0  0  0  0  0  0  0  0  0 
    4.4071    1.4390    0.9359 C   0  0  0  0  0  0  0  0  0  0  0  0 
    5.1790    0.5538    0.1799 C   0  0  0  0  0  0  0  0  0  0  0  0 
    0.0766    0.7051    0.9654 C   0  0  0  0  0  0  0  0  0  0  0  0 
    0.2703    0.3183   -1.4075 C   0  0  0  0  0  0  0  0  0  0  0  0 
    3.0193    1.4324    0.8249 C   0  0  0  0  0  0  0  0  0  0  0  0 
    3.1645   -0.3439   -0.7980 C   0  0  0  0  0  0  0  0  0  0  0  0 
    5.3874   -1.2885   -1.5501 C   0  0  0  0  0  0  0  0  0  0  0  0 
    4.5616   -0.3489   -0.6992 C   0  0  0  0  0  0  0  0  0  0  0  0 
    0.8920    0.5196   -0.1637 C   0  0  0  0  0  0  0  0  0  0  0  0 
    2.3728    0.5363   -0.0448 C   0  0  0  0  0  0  0  0  0  0  0  0 
    5.8029   -0.7467   -2.9303 C   0  0  0  0  0  0  0  0  0  0  0  0 
    6.1000   -1.4693   -3.8478 O   0  0  0  0  0  0  0  0  0  0  0  0 
    5.8663    0.5997   -3.0563 O   0  0  0  0  0  0  0  0  0  0  0  0 
   -2.9997    0.4754   -0.4741 H   0  0  0  0  0  0  0  0  0  0  0  0 
   -1.9245    0.8263    1.7426 H   0  0  0  0  0  0  0  0  0  0  0  0 
   -1.5789    0.1530   -2.4916 H   0  0  0  0  0  0  0  0  0  0  0  0 
    4.8921    2.1357    1.6142 H   0  0  0  0  0  0  0  0  0  0  0  0 
    6.2618    0.5495    0.2872 H   0  0  0  0  0  0  0  0  0  0  0  0 
    0.5361    0.8357    1.9413 H   0  0  0  0  0  0  0  0  0  0  0  0 
    0.8808    0.2005   -2.2985 H   0  0  0  0  0  0  0  0  0  0  0  0 
    2.4287    2.1396    1.3996 H   0  0  0  0  0  0  0  0  0  0  0  0 
    2.6808   -1.0610   -1.4563 H   0  0  0  0  0  0  0  0  0  0  0  0 
    4.8630   -2.2292   -1.7375 H   0  0  0  0  0  0  0  0  0  0  0  0 
    6.3208   -1.5489   -1.0336 H   0  0  0  0  0  0  0  0  0  0  0  0 
    5.5424    1.0183   -2.2375 H   0  0  0  0  0  0  0  0  0  0  0  0 
  1  2  2  0  0  0  0 
  2  6  1  0  0  0  0 
  2 18  1  0  0  0  0 
  3  7  2  0  0  0  0 
  3  1  1  0  0  0  0 
  4 20  1  0  0  0  0 
  5 21  1  0  0  0  0 
  5  4  2  0  0  0  0 
  6 22  1  0  0  0  0 
  7 12  1  0  0  0  0 
  8  4  1  0  0  0  0 
  8 24  1  0  0  0  0 
  9 11  2  0  0  0  0 
  9 13  1  0  0  0  0 
 10 27  1  0  0  0  0 
 10 11  1  0  0  0  0 
 11  5  1  0  0  0  0 
 12 13  1  0  0  0  0 
 12  6  2  0  0  0  0 
 13  8  2  0  0  0  0 
 14 10  1  0  0  0  0 
 15 14  2  0  0  0  0 
 16 14  1  0  0  0  0 
 16 28  1  0  0  0  0 
 17  1  1  0  0  0  0 
 19  3  1  0  0  0  0 
 23  7  1  0  0  0  0 
 25  9  1  0  0  0  0 
 26 10  1  0  0  0  0 
M  END 
>  <HBA> 
2 
 
>  <HBD> 
1 
 
>  <TPSA> 
37.3 
 
>  <cid> 
32153 
 
>  <dipole> 
5.06 
 
>  <excitation_energy_1> 
4.743 
 
>  <excitation_energy_2> 
4.809 
 
>  <excitation_energy_3> 
4.914 
 
>  <excitation_energy_4> 
5.301 
 
>  <homo_energy> 
-6.455 
 
>  <homo_lumo_gap> 
5.29 
 
>  <logP> 
2.981 
 
>  <lumo_energy> 
-1.165 
 
>  <melting_point> 
121.92 
 
>  <molecular_refractivity> 
63.42 
 
>  <oscillator_strength_1> 
0.1244 
 
>  <oscillator_strength_2> 
0.3023 
 
>  <oscillator_strength_3> 
0.0054 
 
>  <oscillator_strength_4> 
0.055 
 
>  <open_babel_can_smiles> 
OC(=O)Cc1cccc(c1)c1ccccc1 
 
>  <mulliken_charges> 
28 
1   -0.124774 
2   -0.133419 
3   -0.133665 
4   -0.125618 
5   -0.202654 
6   -0.172973 
7   -0.172741 
8   -0.173198 
9   -0.215627 
10   -0.455221 
11   0.10516 
12   0.086924 
13   0.093823 
14   0.590373 
15   -0.440602 
16   -0.565905 
17   0.134417 
18   0.134464 
19   0.136435 
20   0.141295 
21   0.139224 
22   0.134005 
23   0.137618 
24   0.141173 
25   0.143132 
26   0.191448 
27   0.19101 
28   0.415896 
 
>  <lowdin_charges> 
28 
1   -0.150717 
2   -0.153675 
3   -0.151741 
4   -0.149914 
5   -0.183196 
6   -0.160034 
7   -0.160532 
8   -0.159742 
9   -0.166105 
10   -0.315188 
11   -0.024343 
12   -0.004164 
13   0.007738 
14   0.195314 
15   -0.244424 
16   -0.357419 
17   0.158327 
18   0.16071 
19   0.160856 
20   0.164789 
21   0.158468 
22   0.159686 
23   0.162035 
24   0.16552 
25   0.165289 
26   0.182113 
27   0.180588 
28   0.35976 
 
$$$$ 
 
