PCCDB-ID:  73219 
public computational chemistry database (PCCDB) project, http://pccdb.org 
 
 39 39  0  0  0  0  0  0  0  0999 V2000 
    3.4886    0.8134    1.2768 C   0  0  0  0  0  0  0  0  0  0  0  0 
    2.3377   -1.3360    0.8567 C   0  0  0  0  0  0  0  0  0  0  0  0 
    1.0906    0.7445    0.3722 C   0  0  0  0  0  0  0  0  0  0  0  0 
    2.7042    3.4213   -4.1236 C   0  0  0  0  0  0  0  0  0  0  0  0 
    5.0790    3.5065   -3.2265 C   0  0  0  0  0  0  0  0  0  0  0  0 
    4.5759    2.3731   -5.3822 C   0  0  0  0  0  0  0  0  0  0  0  0 
    3.3328   -1.0984   -1.7921 C   0  0  0  0  0  0  0  0  0  0  0  0 
    4.0439    0.0770   -3.7788 C   0  0  0  0  0  0  0  0  0  0  0  0 
    4.1113   -2.4097   -3.7592 C   0  0  0  0  0  0  0  0  0  0  0  0 
    3.8249   -1.1246   -3.1000 C   0  0  0  0  0  0  0  0  0  0  0  0 
    3.0496    0.0984   -1.1386 C   0  0  0  0  0  0  0  0  0  0  0  0 
    3.7858    1.3169   -3.1947 C   0  0  0  0  0  0  0  0  0  0  0  0 
    3.2862    1.2990   -1.8667 C   0  0  0  0  0  0  0  0  0  0  0  0 
    2.5025    0.0992    0.3120 C   0  0  0  0  0  0  0  0  0  0  0  0 
    4.0301    2.6366   -3.9630 C   0  0  0  0  0  0  0  0  0  0  0  0 
    3.9540   -3.5078   -3.2537 O   0  0  0  0  0  0  0  0  0  0  0  0 
    3.0376    2.5253   -1.3100 O   0  0  0  0  0  0  0  0  0  0  0  0 
    3.0808    0.8195    2.2943 H   0  0  0  0  0  0  0  0  0  0  0  0 
    3.7168    1.8522    1.0131 H   0  0  0  0  0  0  0  0  0  0  0  0 
    4.4455    0.2811    1.2982 H   0  0  0  0  0  0  0  0  0  0  0  0 
    1.9567   -1.2901    1.8829 H   0  0  0  0  0  0  0  0  0  0  0  0 
    3.2892   -1.8767    0.8804 H   0  0  0  0  0  0  0  0  0  0  0  0 
    1.6253   -1.9195    0.2645 H   0  0  0  0  0  0  0  0  0  0  0  0 
    0.7105    0.7197    1.4000 H   0  0  0  0  0  0  0  0  0  0  0  0 
    0.3941    0.1851   -0.2612 H   0  0  0  0  0  0  0  0  0  0  0  0 
    1.0472    1.7871    0.0381 H   0  0  0  0  0  0  0  0  0  0  0  0 
    2.8859    4.3458   -4.6855 H   0  0  0  0  0  0  0  0  0  0  0  0 
    2.2684    3.6886   -3.1598 H   0  0  0  0  0  0  0  0  0  0  0  0 
    1.9697    2.8290   -4.6822 H   0  0  0  0  0  0  0  0  0  0  0  0 
    5.2540    4.4316   -3.7893 H   0  0  0  0  0  0  0  0  0  0  0  0 
    6.0354    2.9758   -3.1490 H   0  0  0  0  0  0  0  0  0  0  0  0 
    4.7533    3.7760   -2.2209 H   0  0  0  0  0  0  0  0  0  0  0  0 
    4.7341    3.3318   -5.8881 H   0  0  0  0  0  0  0  0  0  0  0  0 
    3.8765    1.7919   -5.9940 H   0  0  0  0  0  0  0  0  0  0  0  0 
    5.5386    1.8494   -5.3657 H   0  0  0  0  0  0  0  0  0  0  0  0 
    3.1799   -2.0548   -1.3086 H   0  0  0  0  0  0  0  0  0  0  0  0 
    4.4260    0.0259   -4.7927 H   0  0  0  0  0  0  0  0  0  0  0  0 
    4.4998   -2.3177   -4.7992 H   0  0  0  0  0  0  0  0  0  0  0  0 
    2.7037    2.4124   -0.4111 H   0  0  0  0  0  0  0  0  0  0  0  0 
  1 20  1  0  0  0  0 
  1 18  1  0  0  0  0 
  2 22  1  0  0  0  0 
  2 21  1  0  0  0  0 
  3 24  1  0  0  0  0 
  4 15  1  0  0  0  0 
  4 28  1  0  0  0  0 
  5 31  1  0  0  0  0 
  5 32  1  0  0  0  0 
  6 35  1  0  0  0  0 
  6 15  1  0  0  0  0 
  7 36  1  0  0  0  0 
  7 11  1  0  0  0  0 
  8 12  2  0  0  0  0 
  8 10  1  0  0  0  0 
  9 16  2  0  0  0  0 
  9 10  1  0  0  0  0 
 10  7  2  0  0  0  0 
 11 14  1  0  0  0  0 
 12 13  1  0  0  0  0 
 13 17  1  0  0  0  0 
 13 11  2  0  0  0  0 
 14  3  1  0  0  0  0 
 14  2  1  0  0  0  0 
 14  1  1  0  0  0  0 
 15  5  1  0  0  0  0 
 15 12  1  0  0  0  0 
 17 39  1  0  0  0  0 
 19  1  1  0  0  0  0 
 23  2  1  0  0  0  0 
 25  3  1  0  0  0  0 
 26  3  1  0  0  0  0 
 27  4  1  0  0  0  0 
 29  4  1  0  0  0  0 
 30  5  1  0  0  0  0 
 33  6  1  0  0  0  0 
 34  6  1  0  0  0  0 
 37  8  1  0  0  0  0 
 38  9  1  0  0  0  0 
M  END 
>  <HBA> 
2 
 
>  <HBD> 
1 
 
>  <TPSA> 
37.3 
 
>  <cid> 
73219 
 
>  <dipole> 
3.78 
 
>  <excitation_energy_1> 
3.807 
 
>  <excitation_energy_2> 
4.566 
 
>  <excitation_energy_3> 
4.625 
 
>  <excitation_energy_4> 
5.529 
 
>  <homo_energy> 
-6.166 
 
>  <homo_lumo_gap> 
4.876 
 
>  <logP> 
3.8 
 
>  <lumo_energy> 
-1.29 
 
>  <melting_point> 
97.65 
 
>  <molecular_refractivity> 
72.39 
 
>  <oscillator_strength_1> 
0.0001 
 
>  <oscillator_strength_2> 
0.1773 
 
>  <oscillator_strength_3> 
0.0936 
 
>  <oscillator_strength_4> 
0.0016 
 
>  <open_babel_can_smiles> 
O=Cc1cc(c(c(c1)C(C)(C)C)O)C(C)(C)C 
 
>  <mulliken_charges> 
39 
1   -0.45977 
2   -0.456851 
3   -0.459611 
4   -0.449815 
5   -0.450209 
6   -0.457304 
7   -0.270072 
8   -0.283207 
9   0.185626 
10   0.133138 
11   0.171839 
12   0.148532 
13   0.203561 
14   -0.019002 
15   0.033472 
16   -0.424559 
17   -0.6434 
18   0.1509 
19   0.139259 
20   0.164257 
21   0.144452 
22   0.15846 
23   0.158266 
24   0.151236 
25   0.164608 
26   0.138712 
27   0.134985 
28   0.167876 
29   0.139007 
30   0.134931 
31   0.138956 
32   0.168165 
33   0.144282 
34   0.144597 
35   0.144671 
36   0.159193 
37   0.135821 
38   0.095174 
39   0.419827 
 
>  <lowdin_charges> 
39 
1   -0.446332 
2   -0.440758 
3   -0.447685 
4   -0.4475 
5   -0.445435 
6   -0.44525 
7   -0.137237 
8   -0.147583 
9   0.043617 
10   -0.076639 
11   -0.047974 
12   -0.029327 
13   0.107725 
14   0.009154 
15   0.022561 
16   -0.245429 
17   -0.366236 
18   0.152523 
19   0.142915 
20   0.161132 
21   0.151374 
22   0.156043 
23   0.157392 
24   0.152783 
25   0.162783 
26   0.142474 
27   0.145856 
28   0.160009 
29   0.148583 
30   0.145865 
31   0.147048 
32   0.159475 
33   0.152437 
34   0.149644 
35   0.148044 
36   0.176989 
37   0.163222 
38   0.111576 
39   0.352161 
 
$$$$ 
 
