PCCDB-ID:  59816 
public computational chemistry database (PCCDB) project, http://pccdb.org 
 
 31 31  0  0  0  0  0  0  0  0999 V2000 
    4.7001    1.7591    2.2336 C   0  0  0  0  0  0  0  0  0  0  0  0 
    4.9711    0.2348    0.3118 C   0  0  0  0  0  0  0  0  0  0  0  0 
   -2.7529   -1.7323    1.7924 C   0  0  0  0  0  0  0  0  0  0  0  0 
   -1.2957    1.5065    5.3808 C   0  0  0  0  0  0  0  0  0  0  0  0 
   -2.4569    0.7626    5.2199 C   0  0  0  0  0  0  0  0  0  0  0  0 
   -0.2701    1.4335    4.4300 C   0  0  0  0  0  0  0  0  0  0  0  0 
   -2.5997   -0.0660    4.0954 C   0  0  0  0  0  0  0  0  0  0  0  0 
    1.9177    0.9719    2.5082 C   0  0  0  0  0  0  0  0  0  0  0  0 
   -0.3920    0.6154    3.2994 C   0  0  0  0  0  0  0  0  0  0  0  0 
   -1.5864   -0.1413    3.1485 C   0  0  0  0  0  0  0  0  0  0  0  0 
    2.8049    0.3450    1.4204 C   0  0  0  0  0  0  0  0  0  0  0  0 
    0.5706    0.5211    2.3143 N   0  0  0  0  0  0  0  0  0  0  0  0 
    4.1146    0.7410    1.3761 N   0  0  0  0  0  0  0  0  0  0  0  0 
    2.3380   -0.4856    0.6450 O   0  0  0  0  0  0  0  0  0  0  0  0 
   -1.6145   -0.9220    2.0183 O   0  0  0  0  0  0  0  0  0  0  0  0 
    5.7163    1.4553    2.5099 H   0  0  0  0  0  0  0  0  0  0  0  0 
    4.1305    1.8795    3.1551 H   0  0  0  0  0  0  0  0  0  0  0  0 
    4.7625    2.7335    1.7276 H   0  0  0  0  0  0  0  0  0  0  0  0 
    5.2898    1.0512   -0.3503 H   0  0  0  0  0  0  0  0  0  0  0  0 
    4.4089   -0.4990   -0.2636 H   0  0  0  0  0  0  0  0  0  0  0  0 
    5.8664   -0.2365    0.7361 H   0  0  0  0  0  0  0  0  0  0  0  0 
   -2.5622   -2.2678    0.8603 H   0  0  0  0  0  0  0  0  0  0  0  0 
   -3.6628   -1.1267    1.6834 H   0  0  0  0  0  0  0  0  0  0  0  0 
   -2.9000   -2.4572    2.6047 H   0  0  0  0  0  0  0  0  0  0  0  0 
   -1.1737    2.1538    6.2452 H   0  0  0  0  0  0  0  0  0  0  0  0 
   -3.2569    0.8150    5.9525 H   0  0  0  0  0  0  0  0  0  0  0  0 
    0.6277    2.0291    4.5640 H   0  0  0  0  0  0  0  0  0  0  0  0 
   -3.5054   -0.6495    3.9710 H   0  0  0  0  0  0  0  0  0  0  0  0 
    1.9859    2.0698    2.4541 H   0  0  0  0  0  0  0  0  0  0  0  0 
    2.3112    0.6876    3.5021 H   0  0  0  0  0  0  0  0  0  0  0  0 
    0.4787   -0.2329    1.6432 H   0  0  0  0  0  0  0  0  0  0  0  0 
  1 16  1  0  0  0  0 
  1 17  1  0  0  0  0 
  2 21  1  0  0  0  0 
  2 13  1  0  0  0  0 
  3 15  1  0  0  0  0 
  3 24  1  0  0  0  0 
  4 25  1  0  0  0  0 
  5  4  1  0  0  0  0 
  5 26  1  0  0  0  0 
  6 27  1  0  0  0  0 
  6  4  2  0  0  0  0 
  7  5  2  0  0  0  0 
  8 30  1  0  0  0  0 
  9  6  1  0  0  0  0 
 10  9  2  0  0  0  0 
 10  7  1  0  0  0  0 
 11  8  1  0  0  0  0 
 12  8  1  0  0  0  0 
 12  9  1  0  0  0  0 
 13 11  1  0  0  0  0 
 13  1  1  0  0  0  0 
 14 11  2  0  0  0  0 
 15 10  1  0  0  0  0 
 18  1  1  0  0  0  0 
 19  2  1  0  0  0  0 
 20  2  1  0  0  0  0 
 22  3  1  0  0  0  0 
 23  3  1  0  0  0  0 
 28  7  1  0  0  0  0 
 29  8  1  0  0  0  0 
 31 12  1  0  0  0  0 
M  END 
>  <HBA> 
4 
 
>  <HBD> 
1 
 
>  <TPSA> 
41.57 
 
>  <cid> 
59816 
 
>  <dipole> 
2.93 
 
>  <excitation_energy_1> 
4.256 
 
>  <excitation_energy_2> 
4.474 
 
>  <excitation_energy_3> 
4.69 
 
>  <excitation_energy_4> 
4.696 
 
>  <homo_energy> 
-4.71 
 
>  <homo_lumo_gap> 
5.26 
 
>  <logP> 
1.268 
 
>  <lumo_energy> 
0.55 
 
>  <melting_point> 
66.01 
 
>  <molecular_refractivity> 
59.76 
 
>  <oscillator_strength_1> 
0.0064 
 
>  <oscillator_strength_2> 
0.0255 
 
>  <oscillator_strength_3> 
0.0248 
 
>  <oscillator_strength_4> 
0.0227 
 
>  <open_babel_can_smiles> 
COc1ccccc1NCC(=O)N(C)C 
 
>  <mulliken_charges> 
31 
1   -0.32083 
2   -0.324331 
3   -0.210137 
4   -0.138833 
5   -0.147834 
6   -0.201054 
7   -0.204395 
8   -0.193457 
9   0.329923 
10   0.333553 
11   0.593363 
12   -0.691849 
13   -0.41511 
14   -0.51947 
15   -0.528255 
16   0.165183 
17   0.177574 
18   0.163441 
19   0.154787 
20   0.209179 
21   0.154478 
22   0.168328 
23   0.150323 
24   0.149542 
25   0.114749 
26   0.115504 
27   0.11152 
28   0.124213 
29   0.16129 
30   0.158389 
31   0.360214 
 
>  <lowdin_charges> 
31 
1   -0.351311 
2   -0.357989 
3   -0.276674 
4   -0.167069 
5   -0.185722 
6   -0.215896 
7   -0.208885 
8   -0.221077 
9   0.040475 
10   0.070889 
11   0.160628 
12   -0.289283 
13   -0.102973 
14   -0.312266 
15   -0.20857 
16   0.157758 
17   0.167644 
18   0.150456 
19   0.150439 
20   0.188126 
21   0.151228 
22   0.161946 
23   0.144366 
24   0.144361 
25   0.152351 
26   0.153292 
27   0.151542 
28   0.159115 
29   0.149555 
30   0.147476 
31   0.296068 
 
$$$$ 
 
