PCCDB-ID:  29309 
public computational chemistry database (PCCDB) project, http://pccdb.org 
 
 36 36  0  0  1  0  0  0  0  0999 V2000 
    4.1334    1.5989    0.0836 C   0  0  0  0  0  0  0  0  0  0  0  0 
    3.7588    3.4842   -1.5750 C   0  0  0  0  0  0  0  0  0  0  0  0 
    4.1152    0.1910   -5.1155 C   0  0  0  0  0  0  0  0  0  0  0  0 
    7.6703   -2.8779   -7.2914 C   0  0  0  0  0  0  0  0  0  0  0  0 
    7.3640   -3.3177   -6.0017 C   0  0  0  0  0  0  0  0  0  0  0  0 
    7.6104   -1.5150   -7.5861 C   0  0  0  0  0  0  0  0  0  0  0  0 
    7.0013   -2.3974   -5.0187 C   0  0  0  0  0  0  0  0  0  0  0  0 
    7.2414   -0.5950   -6.6025 C   0  0  0  0  0  0  0  0  0  0  0  0 
    3.4327    1.0646   -2.3215 C   0  0  0  0  0  0  0  0  0  0  0  0 
    3.3475    2.0663   -1.1527 C   0  0  0  0  0  0  0  0  0  0  0  0 
    4.9886   -0.1055   -3.8948 C   0  0  1  0  0  0  0  0  0  0  0  0 
    6.9294   -1.0286   -5.3093 C   0  0  0  0  0  0  0  0  0  0  0  0 
    6.5088   -0.0529   -4.2285 C   0  0  1  0  0  0  0  0  0  0  0  0 
    4.7976    0.9037   -2.8333 N   0  0  0  0  0  0  0  0  0  0  0  0 
    6.8622    1.2699   -4.5941 O   0  0  0  0  0  0  0  0  0  0  0  0 
    3.9406    2.2592    0.9366 H   0  0  0  0  0  0  0  0  0  0  0  0 
    5.2172    1.6150   -0.0898 H   0  0  0  0  0  0  0  0  0  0  0  0 
    3.8504    0.5809    0.3791 H   0  0  0  0  0  0  0  0  0  0  0  0 
    3.6423    4.1899   -0.7442 H   0  0  0  0  0  0  0  0  0  0  0  0 
    3.1433    3.8426   -2.4087 H   0  0  0  0  0  0  0  0  0  0  0  0 
    4.8043    3.5110   -1.8994 H   0  0  0  0  0  0  0  0  0  0  0  0 
    4.3445   -0.5144   -5.9187 H   0  0  0  0  0  0  0  0  0  0  0  0 
    4.3020    1.2040   -5.4856 H   0  0  0  0  0  0  0  0  0  0  0  0 
    3.0505    0.0951   -4.8828 H   0  0  0  0  0  0  0  0  0  0  0  0 
    7.9600   -3.5921   -8.0578 H   0  0  0  0  0  0  0  0  0  0  0  0 
    7.4167   -4.3758   -5.7583 H   0  0  0  0  0  0  0  0  0  0  0  0 
    7.8557   -1.1639   -8.5853 H   0  0  0  0  0  0  0  0  0  0  0  0 
    6.7795   -2.7458   -4.0116 H   0  0  0  0  0  0  0  0  0  0  0  0 
    7.2035    0.4664   -6.8207 H   0  0  0  0  0  0  0  0  0  0  0  0 
    2.8026    1.4332   -3.1373 H   0  0  0  0  0  0  0  0  0  0  0  0 
    3.0007    0.0987   -1.9959 H   0  0  0  0  0  0  0  0  0  0  0  0 
    2.2846    2.0926   -0.8707 H   0  0  0  0  0  0  0  0  0  0  0  0 
    4.7526   -1.1235   -3.5341 H   0  0  0  0  0  0  0  0  0  0  0  0 
    7.0411   -0.3374   -3.2993 H   0  0  0  0  0  0  0  0  0  0  0  0 
    5.3968    0.6347   -2.0523 H   0  0  0  0  0  0  0  0  0  0  0  0 
    6.2946    1.8293   -4.0274 H   0  0  0  0  0  0  0  0  0  0  0  0 
  1 18  1  0  0  0  0 
  1 16  1  0  0  0  0 
  2 10  1  0  0  0  0 
  2 19  1  0  0  0  0 
  3 24  1  0  0  0  0 
  3 11  1  0  0  0  0 
  4  5  1  0  0  0  0 
  5 26  1  0  0  0  0 
  5  7  2  0  0  0  0 
  6  4  2  0  0  0  0 
  6  8  1  0  0  0  0 
  7 28  1  0  0  0  0 
  8 12  2  0  0  0  0 
  9 31  1  0  0  0  0 
  9 10  1  0  0  0  0 
 10 32  1  0  0  0  0 
 10  1  1  0  0  0  0 
 11 33  1  1  0  0  0 
 11 14  1  0  0  0  0 
 12  7  1  0  0  0  0 
 12 13  1  0  0  0  0 
 13 11  1  0  0  0  0 
 13 34  1  1  0  0  0 
 14  9  1  0  0  0  0 
 14 35  1  0  0  0  0 
 15 13  1  0  0  0  0 
 15 36  1  0  0  0  0 
 17  1  1  0  0  0  0 
 20  2  1  0  0  0  0 
 21  2  1  0  0  0  0 
 22  3  1  0  0  0  0 
 23  3  1  0  0  0  0 
 25  4  1  0  0  0  0 
 27  6  1  0  0  0  0 
 29  8  1  0  0  0  0 
 30  9  1  0  0  0  0 
M  END 
>  <HBA> 
2 
 
>  <HBD> 
2 
 
>  <TPSA> 
32.26 
 
>  <cid> 
29309 
 
>  <dipole> 
2.72 
 
>  <excitation_energy_1> 
5.268 
 
>  <excitation_energy_2> 
5.536 
 
>  <excitation_energy_3> 
5.738 
 
>  <excitation_energy_4> 
5.77 
 
>  <homo_energy> 
-6.27 
 
>  <homo_lumo_gap> 
6.384 
 
>  <logP> 
2.745 
 
>  <lumo_energy> 
0.114 
 
>  <melting_point> 
48.96 
 
>  <molecular_refractivity> 
64.21 
 
>  <oscillator_strength_1> 
0.0022 
 
>  <oscillator_strength_2> 
0.0233 
 
>  <oscillator_strength_3> 
0.0403 
 
>  <oscillator_strength_4> 
0.0072 
 
>  <open_babel_can_smiles> 
CC(CN[C@H]([C@@H](c1ccccc1)O)C)C 
 
>  <mulliken_charges> 
36 
1   -0.456937 
2   -0.435577 
3   -0.45716 
4   -0.127602 
5   -0.133835 
6   -0.133745 
7   -0.179582 
8   -0.167535 
9   -0.113181 
10   -0.083826 
11   0.030112 
12   0.126469 
13   0.08542 
14   -0.599086 
15   -0.652331 
16   0.150098 
17   0.141311 
18   0.141888 
19   0.139163 
20   0.140393 
21   0.151586 
22   0.165716 
23   0.155478 
24   0.145026 
25   0.125659 
26   0.125827 
27   0.127589 
28   0.117324 
29   0.15386 
30   0.147296 
31   0.111842 
32   0.127801 
33   0.112214 
34   0.108913 
35   0.304598 
36   0.404813 
 
>  <lowdin_charges> 
36 
1   -0.448903 
2   -0.445411 
3   -0.453914 
4   -0.162995 
5   -0.155735 
6   -0.154771 
7   -0.168824 
8   -0.156514 
9   -0.205207 
10   -0.123577 
11   -0.076745 
12   -0.012325 
13   -0.002838 
14   -0.368041 
15   -0.467804 
16   0.154778 
17   0.142731 
18   0.147255 
19   0.148346 
20   0.149587 
21   0.150087 
22   0.165959 
23   0.155658 
24   0.149486 
25   0.157021 
26   0.154159 
27   0.155743 
28   0.150439 
29   0.16973 
30   0.148643 
31   0.119873 
32   0.140382 
33   0.123102 
34   0.124223 
35   0.254297 
36   0.342102 
 
$$$$ 
 
