PCCDB-ID:  11595 
public computational chemistry database (PCCDB) project, http://pccdb.org 
 
 20 19  0  0  0  0  0  0  0  0999 V2000 
    1.5092    0.8115    0.6432 C   0  0  0  0  0  0  0  0  0  0  0  0 
    2.7981    0.4369   -0.0953 C   0  0  0  0  0  0  0  0  0  0  0  0 
    3.0696   -1.0725   -0.0928 C   0  0  0  0  0  0  0  0  0  0  0  0 
    4.3663   -1.4451   -0.8135 C   0  0  0  0  0  0  0  0  0  0  0  0 
    5.6685   -3.4582   -1.3977 C   0  0  0  0  0  0  0  0  0  0  0  0 
    6.5051   -2.9736   -2.2352 N   0  0  0  0  0  0  0  0  0  0  0  0 
    4.5692   -2.8857   -0.8004 N   0  0  0  0  0  0  0  0  0  0  0  0 
    5.7927   -4.7548   -0.9995 O   0  0  0  0  0  0  0  0  0  0  0  0 
    1.3417    1.8940    0.6254 H   0  0  0  0  0  0  0  0  0  0  0  0 
    1.5481    0.4972    1.6933 H   0  0  0  0  0  0  0  0  0  0  0  0 
    0.6360    0.3309    0.1856 H   0  0  0  0  0  0  0  0  0  0  0  0 
    3.6485    0.9607    0.3628 H   0  0  0  0  0  0  0  0  0  0  0  0 
    2.7416    0.7931   -1.1333 H   0  0  0  0  0  0  0  0  0  0  0  0 
    2.2340   -1.6039   -0.5674 H   0  0  0  0  0  0  0  0  0  0  0  0 
    3.1185   -1.4291    0.9472 H   0  0  0  0  0  0  0  0  0  0  0  0 
    5.2181   -0.9136   -0.3564 H   0  0  0  0  0  0  0  0  0  0  0  0 
    4.3080   -1.1137   -1.8586 H   0  0  0  0  0  0  0  0  0  0  0  0 
    6.3156   -1.9961   -2.4491 H   0  0  0  0  0  0  0  0  0  0  0  0 
    4.2379   -3.3806    0.0182 H   0  0  0  0  0  0  0  0  0  0  0  0 
    6.5677   -5.0874   -1.4852 H   0  0  0  0  0  0  0  0  0  0  0  0 
  1 10  1  0  0  0  0 
  2  3  1  0  0  0  0 
  2 12  1  0  0  0  0 
  2  1  1  0  0  0  0 
  3 15  1  0  0  0  0 
  4  7  1  0  0  0  0 
  4 16  1  0  0  0  0 
  4  3  1  0  0  0  0 
  5  8  1  0  0  0  0 
  5  7  1  0  0  0  0 
  6  5  2  0  0  0  0 
  7 19  1  0  0  0  0 
  9  1  1  0  0  0  0 
 11  1  1  0  0  0  0 
 13  2  1  0  0  0  0 
 14  3  1  0  0  0  0 
 17  4  1  0  0  0  0 
 18  6  1  0  0  0  0 
 20  8  1  0  0  0  0 
M  END 
>  <HBA> 
3 
 
>  <HBD> 
2 
 
>  <TPSA> 
55.12 
 
>  <cid> 
11595 
 
>  <dipole> 
2.83 
 
>  <excitation_energy_1> 
5.735 
 
>  <excitation_energy_2> 
6.081 
 
>  <excitation_energy_3> 
6.298 
 
>  <excitation_energy_4> 
6.583 
 
>  <homo_energy> 
-6.185 
 
>  <homo_lumo_gap> 
8.014 
 
>  <logP> 
1.546 
 
>  <lumo_energy> 
1.829 
 
>  <melting_point> 
87.25 
 
>  <molecular_refractivity> 
32.25 
 
>  <oscillator_strength_1> 
0.0055 
 
>  <oscillator_strength_2> 
0.0201 
 
>  <oscillator_strength_3> 
0.0013 
 
>  <oscillator_strength_4> 
0.012 
 
>  <open_babel_can_smiles> 
CCCCNC(=N)O 
 
>  <mulliken_charges> 
20 
1   -0.442433 
2   -0.252758 
3   -0.281337 
4   -0.111356 
5   0.645211 
6   -0.668381 
7   -0.603185 
8   -0.611196 
9   0.147835 
10   0.144566 
11   0.146222 
12   0.137408 
13   0.13824 
14   0.151164 
15   0.133419 
16   0.142672 
17   0.151589 
18   0.28263 
19   0.330937 
20   0.418755 
 
>  <lowdin_charges> 
20 
1   -0.44076 
2   -0.27078 
3   -0.279376 
4   -0.193189 
5   0.161813 
6   -0.496323 
7   -0.304764 
8   -0.388574 
9   0.150998 
10   0.146715 
11   0.149568 
12   0.143127 
13   0.141727 
14   0.1504 
15   0.138996 
16   0.135882 
17   0.145682 
18   0.255351 
19   0.286156 
20   0.367349 
 
$$$$ 
 
