PCCDB-ID:  72829 
public computational chemistry database (PCCDB) project, http://pccdb.org 
 
 15 16  0  0  0  0  0  0  0  0999 V2000 
    2.1450    0.7114   -0.0011 C   0  0  0  0  0  0  0  0  0  0  0  0 
    0.9612    1.4621    0.0026 C   0  0  0  0  0  0  0  0  0  0  0  0 
    2.0800   -0.6855   -0.0047 C   0  0  0  0  0  0  0  0  0  0  0  0 
   -0.2203    0.7360    0.0033 C   0  0  0  0  0  0  0  0  0  0  0  0 
   -0.1693   -0.6611    0.0003 C   0  0  0  0  0  0  0  0  0  0  0  0 
   -1.6763    1.0487    0.0053 C   0  0  0  0  0  0  0  0  0  0  0  0 
   -1.6217   -1.1349    0.0018 C   0  0  0  0  0  0  0  0  0  0  0  0 
    0.9325   -1.3934   -0.0033 N   0  0  0  0  0  0  0  0  0  0  0  0 
   -2.4597    0.0233    0.0044 N   0  0  0  0  0  0  0  0  0  0  0  0 
   -2.1663    2.2914    0.0097 O   0  0  0  0  0  0  0  0  0  0  0  0 
   -2.0112   -2.2754    0.0011 O   0  0  0  0  0  0  0  0  0  0  0  0 
    3.1119    1.2045   -0.0018 H   0  0  0  0  0  0  0  0  0  0  0  0 
    0.9958    2.5497    0.0056 H   0  0  0  0  0  0  0  0  0  0  0  0 
    2.9969   -1.2706   -0.0094 H   0  0  0  0  0  0  0  0  0  0  0  0 
   -1.4399    2.9356    0.0052 H   0  0  0  0  0  0  0  0  0  0  0  0 
  1  2  2  0  0  0  0 
  2  4  1  0  0  0  0 
  2 13  1  0  0  0  0 
  3  8  2  0  0  0  0 
  3  1  1  0  0  0  0 
  4  6  1  0  0  0  0 
  5  7  1  0  0  0  0 
  5  4  2  0  0  0  0 
  6 10  1  0  0  0  0 
  7  9  1  0  0  0  0 
  8  5  1  0  0  0  0 
  9  6  2  0  0  0  0 
 11  7  2  0  0  0  0 
 12  1  1  0  0  0  0 
 14  3  1  0  0  0  0 
 15 10  1  0  0  0  0 
M  END 
>  <HBA> 
4 
 
>  <HBD> 
1 
 
>  <TPSA> 
59.06 
 
>  <cid> 
72829 
 
>  <dipole> 
8.13 
 
>  <excitation_energy_1> 
3.02 
 
>  <excitation_energy_2> 
3.932 
 
>  <excitation_energy_3> 
4.035 
 
>  <excitation_energy_4> 
4.167 
 
>  <homo_energy> 
-7.012 
 
>  <homo_lumo_gap> 
4.31 
 
>  <logP> 
0.294 
 
>  <lumo_energy> 
-2.702 
 
>  <melting_point> 
140.7 
 
>  <molecular_refractivity> 
39.61 
 
>  <oscillator_strength_1> 
0.0002 
 
>  <oscillator_strength_2> 
0.0076 
 
>  <oscillator_strength_3> 
0.0 
 
>  <oscillator_strength_4> 
0.0006 
 
>  <open_babel_can_smiles> 
OC1=NC(=O)c2c1cccn2 
 
>  <mulliken_charges> 
15 
1   -0.143521 
2   -0.157771 
3   0.039115 
4   0.082999 
5   0.192259 
6   0.484584 
7   0.548081 
8   -0.464378 
9   -0.49175 
10   -0.566551 
11   -0.414454 
12   0.157555 
13   0.145983 
14   0.162487 
15   0.425363 
 
>  <lowdin_charges> 
15 
1   -0.160293 
2   -0.12815 
3   -0.0705 
4   -0.07329 
5   0.016405 
6   0.156209 
7   0.164888 
8   -0.103943 
9   -0.200547 
10   -0.305195 
11   -0.170254 
12   0.17416 
13   0.16096 
14   0.169079 
15   0.37047 
 
$$$$ 
 
