PCCDB-ID:  17202 
public computational chemistry database (PCCDB) project, http://pccdb.org 
 
 34 35  0  0  1  0  0  0  0  0999 V2000 
    1.0382   -3.2226   -4.6662 C   0  0  0  0  0  0  0  0  0  0  0  0 
   -1.8317    1.1516    0.4439 C   0  0  0  0  0  0  0  0  0  0  0  0 
    1.0498   -1.8436   -4.8906 C   0  0  0  0  0  0  0  0  0  0  0  0 
    1.5513   -3.7277   -3.4712 C   0  0  0  0  0  0  0  0  0  0  0  0 
   -1.5831    0.2304   -0.7607 C   0  0  0  0  0  0  0  0  0  0  0  0 
   -0.5221    1.8152    0.8975 C   0  0  0  0  0  0  0  0  0  0  0  0 
    1.5626   -0.9820   -3.9213 C   0  0  0  0  0  0  0  0  0  0  0  0 
    2.0663   -2.8623   -2.5029 C   0  0  0  0  0  0  0  0  0  0  0  0 
   -0.4472   -0.7660   -0.4660 C   0  0  0  0  0  0  0  0  0  0  0  0 
    0.5623    0.7513    1.1355 C   0  0  0  0  0  0  0  0  0  0  0  0 
    1.5940    0.4937   -1.1033 C   0  0  0  0  0  0  0  0  0  0  0  0 
    2.0677   -1.4795   -2.7110 C   0  0  0  0  0  0  0  0  0  0  0  0 
    2.6353   -0.5244   -1.6597 C   0  0  2  0  0  0  0  0  0  0  0  0 
    0.8053   -0.1207   -0.0256 N   0  0  0  0  0  0  0  0  0  0  0  0 
    3.2199   -1.1995   -0.5644 O   0  0  0  0  0  0  0  0  0  0  0  0 
    0.6399   -3.8961   -5.4206 H   0  0  0  0  0  0  0  0  0  0  0  0 
   -2.2396    0.5571    1.2754 H   0  0  0  0  0  0  0  0  0  0  0  0 
   -2.5866    1.9099    0.2016 H   0  0  0  0  0  0  0  0  0  0  0  0 
    0.6634   -1.4394   -5.8230 H   0  0  0  0  0  0  0  0  0  0  0  0 
    1.5575   -4.8000   -3.2919 H   0  0  0  0  0  0  0  0  0  0  0  0 
   -1.3241    0.8365   -1.6399 H   0  0  0  0  0  0  0  0  0  0  0  0 
   -2.4938   -0.3236   -1.0218 H   0  0  0  0  0  0  0  0  0  0  0  0 
   -0.6780    2.3964    1.8157 H   0  0  0  0  0  0  0  0  0  0  0  0 
   -0.1787    2.5226    0.1292 H   0  0  0  0  0  0  0  0  0  0  0  0 
    1.5778    0.0894   -4.1144 H   0  0  0  0  0  0  0  0  0  0  0  0 
    2.4868   -3.2477   -1.5803 H   0  0  0  0  0  0  0  0  0  0  0  0 
   -0.2322   -1.3850   -1.3402 H   0  0  0  0  0  0  0  0  0  0  0  0 
   -0.7638   -1.4455    0.3382 H   0  0  0  0  0  0  0  0  0  0  0  0 
    0.2524    0.1053    1.9699 H   0  0  0  0  0  0  0  0  0  0  0  0 
    1.5125    1.2120    1.4265 H   0  0  0  0  0  0  0  0  0  0  0  0 
    0.9778    0.8992   -1.9181 H   0  0  0  0  0  0  0  0  0  0  0  0 
    2.1545    1.3298   -0.6730 H   0  0  0  0  0  0  0  0  0  0  0  0 
    3.4319    0.0606   -2.1404 H   0  0  0  0  0  0  0  0  0  0  0  0 
    2.4828   -1.2449    0.0843 H   0  0  0  0  0  0  0  0  0  0  0  0 
  1  4  1  0  0  0  0 
  2  6  1  0  0  0  0 
  2 17  1  0  0  0  0 
  3  1  2  0  0  0  0 
  3  7  1  0  0  0  0 
  4 20  1  0  0  0  0 
  4  8  2  0  0  0  0 
  5  9  1  0  0  0  0 
  5  2  1  0  0  0  0 
  6 10  1  0  0  0  0 
  6 23  1  0  0  0  0 
  7 12  2  0  0  0  0 
  8 26  1  0  0  0  0 
  9 14  1  0  0  0  0 
  9 28  1  0  0  0  0 
 10 30  1  0  0  0  0 
 10 29  1  0  0  0  0 
 11 32  1  0  0  0  0 
 11 14  1  0  0  0  0 
 12  8  1  0  0  0  0 
 12 13  1  0  0  0  0 
 13 33  1  6  0  0  0 
 13 11  1  0  0  0  0 
 13 15  1  0  0  0  0 
 14 10  1  0  0  0  0 
 15 34  1  0  0  0  0 
 16  1  1  0  0  0  0 
 18  2  1  0  0  0  0 
 19  3  1  0  0  0  0 
 21  5  1  0  0  0  0 
 22  5  1  0  0  0  0 
 24  6  1  0  0  0  0 
 25  7  1  0  0  0  0 
 27  9  1  0  0  0  0 
 31 11  1  0  0  0  0 
M  END 
>  <HBA> 
2 
 
>  <HBD> 
1 
 
>  <TPSA> 
23.47 
 
>  <cid> 
17202 
 
>  <dipole> 
2.97 
 
>  <excitation_energy_1> 
5.034 
 
>  <excitation_energy_2> 
5.195 
 
>  <excitation_energy_3> 
5.305 
 
>  <excitation_energy_4> 
5.343 
 
>  <homo_energy> 
-5.902 
 
>  <homo_lumo_gap> 
5.987 
 
>  <logP> 
2.144 
 
>  <lumo_energy> 
0.084 
 
>  <melting_point> 
47.0 
 
>  <molecular_refractivity> 
66.11 
 
>  <oscillator_strength_1> 
0.0146 
 
>  <oscillator_strength_2> 
0.0043 
 
>  <oscillator_strength_3> 
0.0162 
 
>  <oscillator_strength_4> 
0.0042 
 
>  <open_babel_can_smiles> 
O[C@@H](c1ccccc1)CN1CCCCC1 
 
>  <mulliken_charges> 
34 
1   -0.130325 
2   -0.259602 
3   -0.132314 
4   -0.129562 
5   -0.267418 
6   -0.264086 
7   -0.183071 
8   -0.179805 
9   -0.152307 
10   -0.141783 
11   -0.159806 
12   0.125398 
13   0.079234 
14   -0.419667 
15   -0.642765 
16   0.125283 
17   0.129601 
18   0.135676 
19   0.125409 
20   0.126723 
21   0.136345 
22   0.136515 
23   0.134208 
24   0.134751 
25   0.117907 
26   0.142618 
27   0.16876 
28   0.136318 
29   0.138022 
30   0.145498 
31   0.137058 
32   0.146531 
33   0.140655 
34   0.400003 
 
>  <lowdin_charges> 
34 
1   -0.165287 
2   -0.280661 
3   -0.157061 
4   -0.153706 
5   -0.293289 
6   -0.294409 
7   -0.172408 
8   -0.165807 
9   -0.212625 
10   -0.206681 
11   -0.223119 
12   -0.025348 
13   -0.011742 
14   -0.187757 
15   -0.466013 
16   0.15691 
17   0.139165 
18   0.146111 
19   0.155393 
20   0.15405 
21   0.141311 
22   0.149053 
23   0.147328 
24   0.141631 
25   0.148714 
26   0.166625 
27   0.162432 
28   0.142253 
29   0.141704 
30   0.148088 
31   0.138323 
32   0.151936 
33   0.149427 
34   0.335457 
 
$$$$ 
 
