PCCDB-ID:  13271 
public computational chemistry database (PCCDB) project, http://pccdb.org 
 
 26 27  0  0  0  0  0  0  0  0999 V2000 
    2.6292    3.8377   -1.3398 C   0  0  0  0  0  0  0  0  0  0  0  0 
    2.2180    3.5501   -0.0367 C   0  0  0  0  0  0  0  0  0  0  0  0 
    3.0611    2.7973   -2.1639 C   0  0  0  0  0  0  0  0  0  0  0  0 
    2.2582    2.2433    0.4432 C   0  0  0  0  0  0  0  0  0  0  0  0 
    3.0851    1.4823   -1.7007 C   0  0  0  0  0  0  0  0  0  0  0  0 
    3.1432   -2.4607    0.3369 C   0  0  0  0  0  0  0  0  0  0  0  0 
    4.7795   -1.0270   -0.7444 C   0  0  0  0  0  0  0  0  0  0  0  0 
    3.9680   -3.5559    0.1517 C   0  0  0  0  0  0  0  0  0  0  0  0 
    5.6037   -2.1259   -0.9344 C   0  0  0  0  0  0  0  0  0  0  0  0 
    2.6965    1.1962   -0.3827 C   0  0  0  0  0  0  0  0  0  0  0  0 
    3.5260   -1.1754   -0.1112 C   0  0  0  0  0  0  0  0  0  0  0  0 
    5.1964   -3.3859   -0.4924 C   0  0  0  0  0  0  0  0  0  0  0  0 
    2.6668   -0.1177    0.1268 N   0  0  0  0  0  0  0  0  0  0  0  0 
    6.0646   -4.5361   -0.6978 N   0  0  0  0  0  0  0  0  0  0  0  0 
    5.6785   -5.6322   -0.2810 O   0  0  0  0  0  0  0  0  0  0  0  0 
    7.1393   -4.3530   -1.2769 O   0  0  0  0  0  0  0  0  0  0  0  0 
    2.6083    4.8586   -1.7092 H   0  0  0  0  0  0  0  0  0  0  0  0 
    1.8756    4.3478    0.6168 H   0  0  0  0  0  0  0  0  0  0  0  0 
    3.3663    3.0032   -3.1863 H   0  0  0  0  0  0  0  0  0  0  0  0 
    1.9589    2.0268    1.4661 H   0  0  0  0  0  0  0  0  0  0  0  0 
    3.3779    0.6777   -2.3663 H   0  0  0  0  0  0  0  0  0  0  0  0 
    2.1805   -2.5894    0.8258 H   0  0  0  0  0  0  0  0  0  0  0  0 
    5.1153   -0.0472   -1.0606 H   0  0  0  0  0  0  0  0  0  0  0  0 
    3.6770   -4.5430    0.4891 H   0  0  0  0  0  0  0  0  0  0  0  0 
    6.5706   -2.0201   -1.4111 H   0  0  0  0  0  0  0  0  0  0  0  0 
    1.9458   -0.2956    0.8126 H   0  0  0  0  0  0  0  0  0  0  0  0 
  1  2  2  0  0  0  0 
  2  4  1  0  0  0  0 
  2 18  1  0  0  0  0 
  3  5  2  0  0  0  0 
  3  1  1  0  0  0  0 
  4 20  1  0  0  0  0 
  5 10  1  0  0  0  0 
  6 22  1  0  0  0  0 
  7 11  1  0  0  0  0 
  8  6  1  0  0  0  0 
  8 24  1  0  0  0  0 
  9  7  2  0  0  0  0 
  9 12  1  0  0  0  0 
 10 13  1  0  0  0  0 
 10  4  2  0  0  0  0 
 11 13  1  0  0  0  0 
 11  6  2  0  0  0  0 
 12  8  2  0  0  0  0 
 13 26  1  0  0  0  0 
 14 12  1  0  0  0  0 
 14 15  2  0  0  0  0 
 16 14  2  0  0  0  0 
 17  1  1  0  0  0  0 
 19  3  1  0  0  0  0 
 21  5  1  0  0  0  0 
 23  7  1  0  0  0  0 
 25  9  1  0  0  0  0 
M  END 
>  <HBA> 
0 
 
>  <HBD> 
1 
 
>  <TPSA> 
57.85 
 
>  <cid> 
13271 
 
>  <dipole> 
7.02 
 
>  <excitation_energy_1> 
3.345 
 
>  <excitation_energy_2> 
3.761 
 
>  <excitation_energy_3> 
4.285 
 
>  <excitation_energy_4> 
4.322 
 
>  <homo_energy> 
-5.821 
 
>  <homo_lumo_gap> 
3.777 
 
>  <logP> 
3.935 
 
>  <lumo_energy> 
-2.044 
 
>  <melting_point> 
117.24 
 
>  <molecular_refractivity> 
64.81 
 
>  <oscillator_strength_1> 
0.4888 
 
>  <oscillator_strength_2> 
0.0007 
 
>  <oscillator_strength_3> 
0.0018 
 
>  <oscillator_strength_4> 
0.0013 
 
>  <open_babel_can_smiles> 
O=N(=O)c1ccc(cc1)Nc1ccccc1 
 
>  <mulliken_charges> 
26 
1   -0.128278 
2   -0.133183 
3   -0.140619 
4   -0.181167 
5   -0.167345 
6   -0.207849 
7   -0.189487 
8   -0.151903 
9   -0.163026 
10   0.348158 
11   0.399558 
12   0.275155 
13   -0.790475 
14   0.367271 
15   -0.410237 
16   -0.410271 
17   0.135158 
18   0.13782 
19   0.139251 
20   0.129914 
21   0.151313 
22   0.136021 
23   0.15889 
24   0.181082 
25   0.181534 
26   0.332715 
 
>  <lowdin_charges> 
26 
1   -0.165745 
2   -0.145812 
3   -0.143429 
4   -0.182969 
5   -0.185023 
6   -0.191566 
7   -0.195467 
8   -0.126052 
9   -0.124269 
10   0.052196 
11   0.080377 
12   -0.026036 
13   -0.237005 
14   0.30728 
15   -0.26372 
16   -0.262788 
17   0.160617 
18   0.163354 
19   0.161523 
20   0.156895 
21   0.169722 
22   0.160335 
23   0.173788 
24   0.187074 
25   0.186759 
26   0.28996 
 
$$$$ 
 
