PCCDB-ID:  38319 
public computational chemistry database (PCCDB) project, http://pccdb.org 
 
 32 32  0  0  0  0  0  0  0  0999 V2000 
    1.2736   -4.5236    3.7233 C   0  0  0  0  0  0  0  0  0  0  0  0 
    2.7719   -4.8167    3.8488 C   0  0  0  0  0  0  0  0  0  0  0  0 
    3.6446   -3.7946    3.1100 C   0  0  0  0  0  0  0  0  0  0  0  0 
    9.3672   -2.2517    1.5007 C   0  0  0  0  0  0  0  0  0  0  0  0 
    9.4754   -3.9165    3.2218 C   0  0  0  0  0  0  0  0  0  0  0  0 
    7.9823   -2.2637    1.5694 C   0  0  0  0  0  0  0  0  0  0  0  0 
    8.0832   -3.9463    3.2987 C   0  0  0  0  0  0  0  0  0  0  0  0 
    5.1413   -4.0837    3.2398 C   0  0  0  0  0  0  0  0  0  0  0  0 
   11.6606   -3.0731    2.2320 C   0  0  0  0  0  0  0  0  0  0  0  0 
   10.1519   -3.0760    2.3274 C   0  0  0  0  0  0  0  0  0  0  0  0 
    7.3058   -3.1104    2.4748 C   0  0  0  0  0  0  0  0  0  0  0  0 
   12.2777   -4.0134    1.1797 C   0  0  0  0  0  0  0  0  0  0  0  0 
    5.9234   -3.0678    2.5512 N   0  0  0  0  0  0  0  0  0  0  0  0 
   13.4317   -3.9376    0.8377 O   0  0  0  0  0  0  0  0  0  0  0  0 
   11.4603   -4.9655    0.6725 O   0  0  0  0  0  0  0  0  0  0  0  0 
    0.6772   -5.2688    4.2610 H   0  0  0  0  0  0  0  0  0  0  0  0 
    0.9532   -4.5346    2.6744 H   0  0  0  0  0  0  0  0  0  0  0  0 
    1.0265   -3.5378    4.1354 H   0  0  0  0  0  0  0  0  0  0  0  0 
    2.9825   -5.8228    3.4606 H   0  0  0  0  0  0  0  0  0  0  0  0 
    3.0541   -4.8328    4.9107 H   0  0  0  0  0  0  0  0  0  0  0  0 
    3.4442   -2.7852    3.4938 H   0  0  0  0  0  0  0  0  0  0  0  0 
    3.3683   -3.7860    2.0443 H   0  0  0  0  0  0  0  0  0  0  0  0 
    9.8552   -1.5851    0.7928 H   0  0  0  0  0  0  0  0  0  0  0  0 
   10.0488   -4.5641    3.8826 H   0  0  0  0  0  0  0  0  0  0  0  0 
    7.4038   -1.6050    0.9250 H   0  0  0  0  0  0  0  0  0  0  0  0 
    7.6059   -4.6146    4.0068 H   0  0  0  0  0  0  0  0  0  0  0  0 
    5.3626   -5.0957    2.8568 H   0  0  0  0  0  0  0  0  0  0  0  0 
    5.4177   -4.0813    4.3024 H   0  0  0  0  0  0  0  0  0  0  0  0 
   12.1077   -3.3641    3.1914 H   0  0  0  0  0  0  0  0  0  0  0  0 
   12.0487   -2.0739    2.0098 H   0  0  0  0  0  0  0  0  0  0  0  0 
    5.4704   -2.6699    1.7383 H   0  0  0  0  0  0  0  0  0  0  0  0 
   10.5672   -4.8393    1.0453 H   0  0  0  0  0  0  0  0  0  0  0  0 
  1  2  1  0  0  0  0 
  1 18  1  0  0  0  0 
  1 16  1  0  0  0  0 
  2 20  1  0  0  0  0 
  3  8  1  0  0  0  0 
  3 21  1  0  0  0  0 
  3  2  1  0  0  0  0 
  4  6  2  0  0  0  0 
  4 10  1  0  0  0  0 
  5  7  1  0  0  0  0 
  5 24  1  0  0  0  0 
  6 11  1  0  0  0  0 
  7 26  1  0  0  0  0 
  8 28  1  0  0  0  0 
  9 10  1  0  0  0  0 
  9 29  1  0  0  0  0 
 10  5  2  0  0  0  0 
 11 13  1  0  0  0  0 
 11  7  2  0  0  0  0 
 12  9  1  0  0  0  0 
 13  8  1  0  0  0  0 
 14 12  2  0  0  0  0 
 15 32  1  0  0  0  0 
 15 12  1  0  0  0  0 
 17  1  1  0  0  0  0 
 19  2  1  0  0  0  0 
 22  3  1  0  0  0  0 
 23  4  1  0  0  0  0 
 25  6  1  0  0  0  0 
 27  8  1  0  0  0  0 
 30  9  1  0  0  0  0 
 31 13  1  0  0  0  0 
M  END 
>  <HBA> 
3 
 
>  <HBD> 
2 
 
>  <TPSA> 
49.33 
 
>  <cid> 
38319 
 
>  <dipole> 
7.22 
 
>  <excitation_energy_1> 
4.378 
 
>  <excitation_energy_2> 
4.837 
 
>  <excitation_energy_3> 
5.01 
 
>  <excitation_energy_4> 
5.14 
 
>  <homo_energy> 
-5.57 
 
>  <homo_lumo_gap> 
5.225 
 
>  <logP> 
2.599 
 
>  <lumo_energy> 
-0.346 
 
>  <melting_point> 
117.21 
 
>  <molecular_refractivity> 
61.71 
 
>  <oscillator_strength_1> 
0.0298 
 
>  <oscillator_strength_2> 
0.0211 
 
>  <oscillator_strength_3> 
0.1592 
 
>  <oscillator_strength_4> 
0.1807 
 
>  <open_babel_can_smiles> 
CCCCNc1ccc(cc1)CC(=O)O 
 
>  <mulliken_charges> 
32 
1   -0.442597 
2   -0.252504 
3   -0.282973 
4   -0.169436 
5   -0.19614 
6   -0.187405 
7   -0.180309 
8   -0.097495 
9   -0.453134 
10   0.079695 
11   0.371703 
12   0.585028 
13   -0.674983 
14   -0.447805 
15   -0.567215 
16   0.148718 
17   0.144687 
18   0.146142 
19   0.13786 
20   0.138192 
21   0.149325 
22   0.131915 
23   0.135924 
24   0.133266 
25   0.123695 
26   0.132383 
27   0.136694 
28   0.151553 
29   0.187674 
30   0.187085 
31   0.315328 
32   0.41513 
 
>  <lowdin_charges> 
32 
1   -0.443001 
2   -0.268649 
3   -0.277303 
4   -0.152965 
5   -0.163317 
6   -0.195856 
7   -0.209859 
8   -0.191801 
9   -0.314726 
10   -0.064666 
11   0.065903 
12   0.186105 
13   -0.292842 
14   -0.249679 
15   -0.355251 
16   0.154514 
17   0.146927 
18   0.148519 
19   0.141809 
20   0.141368 
21   0.14753 
22   0.137505 
23   0.161762 
24   0.159686 
25   0.15692 
26   0.162948 
27   0.131245 
28   0.145072 
29   0.179027 
30   0.178952 
31   0.27501 
32   0.359112 
 
$$$$ 
 
