PCCDB-ID:  28511 
public computational chemistry database (PCCDB) project, http://pccdb.org 
 
 31 32  0  0  0  0  0  0  0  0999 V2000 
    7.1448    1.7550   -1.6051 C   0  0  0  0  0  0  0  0  0  0  0  0 
    5.1560    0.9563   -0.5251 C   0  0  0  0  0  0  0  0  0  0  0  0 
    6.7517    3.2228    6.8181 C   0  0  0  0  0  0  0  0  0  0  0  0 
    6.5648    4.1095    5.7701 C   0  0  0  0  0  0  0  0  0  0  0  0 
    6.8007    0.7171    2.0388 C   0  0  0  0  0  0  0  0  0  0  0  0 
    7.3144    0.7982    0.5937 C   0  0  0  0  0  0  0  0  0  0  0  0 
    6.9155    1.3241    5.2716 C   0  0  0  0  0  0  0  0  0  0  0  0 
    7.1190    0.9480    7.6829 C   0  0  0  0  0  0  0  0  0  0  0  0 
    6.4622    3.2787    2.2397 C   0  0  0  0  0  0  0  0  0  0  0  0 
    6.9275    1.8356    6.5746 C   0  0  0  0  0  0  0  0  0  0  0  0 
    6.6700    2.0285    2.7659 C   0  0  0  0  0  0  0  0  0  0  0  0 
    6.7293    2.2030    4.1987 C   0  0  0  0  0  0  0  0  0  0  0  0 
    6.5547    3.5918    4.4697 C   0  0  0  0  0  0  0  0  0  0  0  0 
    7.2751    0.2284    8.5848 N   0  0  0  0  0  0  0  0  0  0  0  0 
    6.3936    4.2174    3.2582 N   0  0  0  0  0  0  0  0  0  0  0  0 
    6.4678    1.5632   -0.3272 N   0  0  0  0  0  0  0  0  0  0  0  0 
    6.5276    2.3793   -2.2602 H   0  0  0  0  0  0  0  0  0  0  0  0 
    7.3505    0.8041   -2.1351 H   0  0  0  0  0  0  0  0  0  0  0  0 
    8.1001    2.2667   -1.4458 H   0  0  0  0  0  0  0  0  0  0  0  0 
    4.5747    1.5698   -1.2216 H   0  0  0  0  0  0  0  0  0  0  0  0 
    4.6058    0.9156    0.4191 H   0  0  0  0  0  0  0  0  0  0  0  0 
    5.2124   -0.0701   -0.9388 H   0  0  0  0  0  0  0  0  0  0  0  0 
    6.7658    3.5830    7.8413 H   0  0  0  0  0  0  0  0  0  0  0  0 
    6.4298    5.1711    5.9581 H   0  0  0  0  0  0  0  0  0  0  0  0 
    7.5083    0.0789    2.5855 H   0  0  0  0  0  0  0  0  0  0  0  0 
    5.8481    0.1687    2.0667 H   0  0  0  0  0  0  0  0  0  0  0  0 
    7.4670   -0.2362    0.2226 H   0  0  0  0  0  0  0  0  0  0  0  0 
    8.2997    1.2797    0.6040 H   0  0  0  0  0  0  0  0  0  0  0  0 
    7.0482    0.2588    5.1103 H   0  0  0  0  0  0  0  0  0  0  0  0 
    6.3521    3.5620    1.2038 H   0  0  0  0  0  0  0  0  0  0  0  0 
    6.2575    5.2074    3.1247 H   0  0  0  0  0  0  0  0  0  0  0  0 
  1 19  1  0  0  0  0 
  1 16  1  0  0  0  0 
  2 16  1  0  0  0  0 
  2 21  1  0  0  0  0 
  3 23  1  0  0  0  0 
  4 24  1  0  0  0  0 
  4  3  2  0  0  0  0 
  5 26  1  0  0  0  0 
  5 25  1  0  0  0  0 
  5 11  1  0  0  0  0 
  6 28  1  0  0  0  0 
  6  5  1  0  0  0  0 
  7 10  2  0  0  0  0 
  8 14  3  0  0  0  0 
  9 11  2  0  0  0  0 
  9 15  1  0  0  0  0 
 10  3  1  0  0  0  0 
 10  8  1  0  0  0  0 
 11 12  1  0  0  0  0 
 12 13  2  0  0  0  0 
 12  7  1  0  0  0  0 
 13  4  1  0  0  0  0 
 15 13  1  0  0  0  0 
 16  6  1  0  0  0  0 
 17  1  1  0  0  0  0 
 18  1  1  0  0  0  0 
 20  2  1  0  0  0  0 
 22  2  1  0  0  0  0 
 27  6  1  0  0  0  0 
 29  7  1  0  0  0  0 
 30  9  1  0  0  0  0 
 31 15  1  0  0  0  0 
M  END 
>  <HBA> 
2 
 
>  <HBD> 
1 
 
>  <TPSA> 
42.82 
 
>  <cid> 
28511 
 
>  <dipole> 
7.55 
 
>  <excitation_energy_1> 
4.222 
 
>  <excitation_energy_2> 
4.522 
 
>  <excitation_energy_3> 
4.603 
 
>  <excitation_energy_4> 
4.913 
 
>  <homo_energy> 
-5.744 
 
>  <homo_lumo_gap> 
4.958 
 
>  <logP> 
2.144 
 
>  <lumo_energy> 
-0.786 
 
>  <melting_point> 
139.15 
 
>  <molecular_refractivity> 
65.3 
 
>  <oscillator_strength_1> 
0.0231 
 
>  <oscillator_strength_2> 
0.0018 
 
>  <oscillator_strength_3> 
0.0012 
 
>  <oscillator_strength_4> 
0.0013 
 
>  <open_babel_can_smiles> 
N#Cc1ccc2c(c1)c(CCN(C)C)c[nH]2 
 
>  <mulliken_charges> 
31 
1   -0.295761 
2   -0.304271 
3   -0.167515 
4   -0.163098 
5   -0.366753 
6   -0.113692 
7   -0.231848 
8   0.225673 
9   0.00616 
10   0.128393 
11   0.079942 
12   0.071524 
13   0.335773 
14   -0.493419 
15   -0.699125 
16   -0.370121 
17   0.148665 
18   0.121992 
19   0.150506 
20   0.149427 
21   0.160365 
22   0.121541 
23   0.149953 
24   0.134252 
25   0.15074 
26   0.156729 
27   0.112487 
28   0.143459 
29   0.150094 
30   0.177011 
31   0.330916 
 
>  <lowdin_charges> 
31 
1   -0.358755 
2   -0.360286 
3   -0.145786 
4   -0.178009 
5   -0.276341 
6   -0.195414 
7   -0.136462 
8   -0.014564 
9   -0.129378 
10   -0.040585 
11   -0.05916 
12   -0.034205 
13   0.039639 
14   -0.13864 
15   -0.190241 
16   -0.184328 
17   0.151365 
18   0.123346 
19   0.150168 
20   0.152972 
21   0.154384 
22   0.122198 
23   0.170141 
24   0.160594 
25   0.158961 
26   0.153016 
27   0.119477 
28   0.146834 
29   0.168531 
30   0.178608 
31   0.291919 
 
$$$$ 
 
