PCCDB-ID:  11428 
public computational chemistry database (PCCDB) project, http://pccdb.org 
 
 18 17  0  0  0  0  0  0  0  0999 V2000 
    2.8204   -1.4260   -0.0293 C   0  0  0  0  0  0  0  0  0  0  0  0 
    2.9445    3.4175   -1.7028 C   0  0  0  0  0  0  0  0  0  0  0  0 
    2.5418    0.0483    0.2765 C   0  0  0  0  0  0  0  0  0  0  0  0 
    2.6050    2.4608   -0.5563 C   0  0  0  0  0  0  0  0  0  0  0  0 
    2.9558    0.9964   -0.8582 C   0  0  0  0  0  0  0  0  0  0  0  0 
    4.3447    0.8518   -1.1799 O   0  0  0  0  0  0  0  0  0  0  0  0 
    2.5532   -2.0651    0.8196 H   0  0  0  0  0  0  0  0  0  0  0  0 
    3.8790   -1.5799   -0.2592 H   0  0  0  0  0  0  0  0  0  0  0  0 
    2.2411   -1.7631   -0.8976 H   0  0  0  0  0  0  0  0  0  0  0  0 
    2.7207    4.4556   -1.4334 H   0  0  0  0  0  0  0  0  0  0  0  0 
    2.3665    3.1730   -2.6024 H   0  0  0  0  0  0  0  0  0  0  0  0 
    4.0049    3.3483   -1.9635 H   0  0  0  0  0  0  0  0  0  0  0  0 
    3.0751    0.3472    1.1931 H   0  0  0  0  0  0  0  0  0  0  0  0 
    1.4733    0.1937    0.4868 H   0  0  0  0  0  0  0  0  0  0  0  0 
    1.5351    2.5256   -0.3155 H   0  0  0  0  0  0  0  0  0  0  0  0 
    3.1406    2.7669    0.3566 H   0  0  0  0  0  0  0  0  0  0  0  0 
    2.4407    0.6909   -1.7792 H   0  0  0  0  0  0  0  0  0  0  0  0 
    4.8471    1.1121   -0.3899 H   0  0  0  0  0  0  0  0  0  0  0  0 
  1  3  1  0  0  0  0 
  1  7  1  0  0  0  0 
  2 10  1  0  0  0  0 
  2  4  1  0  0  0  0 
  3 14  1  0  0  0  0 
  3 13  1  0  0  0  0 
  4 15  1  0  0  0  0 
  4 16  1  0  0  0  0 
  5  4  1  0  0  0  0 
  5  3  1  0  0  0  0 
  6  5  1  0  0  0  0 
  6 18  1  0  0  0  0 
  8  1  1  0  0  0  0 
  9  1  1  0  0  0  0 
 11  2  1  0  0  0  0 
 12  2  1  0  0  0  0 
 17  5  1  0  0  0  0 
M  END 
>  <HBA> 
1 
 
>  <HBD> 
1 
 
>  <TPSA> 
20.23 
 
>  <cid> 
11428 
 
>  <dipole> 
1.56 
 
>  <excitation_energy_1> 
6.615 
 
>  <excitation_energy_2> 
7.154 
 
>  <excitation_energy_3> 
7.399 
 
>  <excitation_energy_4> 
7.415 
 
>  <homo_energy> 
-7.105 
 
>  <homo_lumo_gap> 
9.023 
 
>  <logP> 
1.167 
 
>  <lumo_energy> 
1.918 
 
>  <melting_point> 
-7.28 
 
>  <molecular_refractivity> 
27.31 
 
>  <oscillator_strength_1> 
0.0062 
 
>  <oscillator_strength_2> 
0.0 
 
>  <oscillator_strength_3> 
0.0024 
 
>  <oscillator_strength_4> 
0.0002 
 
>  <open_babel_can_smiles> 
CCC(CC)O 
 
>  <mulliken_charges> 
18 
1   -0.439549 
2   -0.439644 
3   -0.266036 
4   -0.26595 
5   0.144641 
6   -0.619611 
7   0.138882 
8   0.157777 
9   0.141838 
10   0.138844 
11   0.141853 
12   0.157863 
13   0.117638 
14   0.131866 
15   0.131694 
16   0.117589 
17   0.130221 
18   0.380082 
 
>  <lowdin_charges> 
18 
1   -0.445906 
2   -0.443713 
3   -0.2878 
4   -0.28784 
5   -0.001684 
6   -0.465187 
7   0.148962 
8   0.153931 
9   0.148253 
10   0.147121 
11   0.147933 
12   0.153911 
13   0.134261 
14   0.143224 
15   0.143055 
16   0.134242 
17   0.14027 
18   0.336965 
 
$$$$ 
 
