PCCDB-ID:  20679 
public computational chemistry database (PCCDB) project, http://pccdb.org 
 
 15 14  0  0  0  0  0  0  0  0999 V2000 
    0.8198   -0.8301   -0.1174 C   0  0  0  0  0  0  0  0  0  0  0  0 
    3.0774    2.3307   -0.2232 C   0  0  0  0  0  0  0  0  0  0  0  0 
    2.0114   -0.6106    0.4388 C   0  0  0  0  0  0  0  0  0  0  0  0 
    3.2430   -0.2000   -0.3248 C   0  0  0  0  0  0  0  0  0  0  0  0 
    4.8706    1.2207    0.8656 N   0  0  0  0  0  0  0  0  0  0  0  0 
    3.7614    1.0983    0.1167 N   0  0  0  0  0  0  0  0  0  0  0  0 
    5.4272    0.1706    1.1697 O   0  0  0  0  0  0  0  0  0  0  0  0 
   -0.0382   -1.1400    0.4725 H   0  0  0  0  0  0  0  0  0  0  0  0 
    0.6594   -0.7218   -1.1886 H   0  0  0  0  0  0  0  0  0  0  0  0 
    3.0606    2.4794   -1.3103 H   0  0  0  0  0  0  0  0  0  0  0  0 
    3.6227    3.1510    0.2474 H   0  0  0  0  0  0  0  0  0  0  0  0 
    2.0454    2.3138    0.1443 H   0  0  0  0  0  0  0  0  0  0  0  0 
    2.1453   -0.7270    1.5138 H   0  0  0  0  0  0  0  0  0  0  0  0 
    3.0316   -0.1400   -1.3992 H   0  0  0  0  0  0  0  0  0  0  0  0 
    4.0610   -0.9081   -0.1590 H   0  0  0  0  0  0  0  0  0  0  0  0 
  1  3  2  0  0  0  0 
  1  8  1  0  0  0  0 
  2  6  1  0  0  0  0 
  2 12  1  0  0  0  0 
  2 11  1  0  0  0  0 
  3 13  1  0  0  0  0 
  4 15  1  0  0  0  0 
  4  6  1  0  0  0  0 
  4  3  1  0  0  0  0 
  5  7  2  0  0  0  0 
  6  5  1  0  0  0  0 
  9  1  1  0  0  0  0 
 10  2  1  0  0  0  0 
 14  4  1  0  0  0  0 
M  END 
>  <HBA> 
3 
 
>  <HBD> 
0 
 
>  <TPSA> 
32.67 
 
>  <cid> 
20679 
 
>  <dipole> 
3.86 
 
>  <excitation_energy_1> 
3.389 
 
>  <excitation_energy_2> 
5.287 
 
>  <excitation_energy_3> 
5.674 
 
>  <excitation_energy_4> 
5.768 
 
>  <homo_energy> 
-6.076 
 
>  <homo_lumo_gap> 
5.197 
 
>  <logP> 
0.786 
 
>  <lumo_energy> 
-0.879 
 
>  <melting_point> 
-24.15 
 
>  <molecular_refractivity> 
28.5 
 
>  <oscillator_strength_1> 
0.0009 
 
>  <oscillator_strength_2> 
0.0122 
 
>  <oscillator_strength_3> 
0.1467 
 
>  <oscillator_strength_4> 
0.0091 
 
>  <open_babel_can_smiles> 
CN(N=O)CC=C 
 
>  <mulliken_charges> 
15 
1   -0.337885 
2   -0.308427 
3   -0.042023 
4   -0.210158 
5   0.153517 
6   -0.206764 
7   -0.378503 
8   0.151422 
9   0.14168 
10   0.16193 
11   0.190395 
12   0.173002 
13   0.150911 
14   0.157287 
15   0.203618 
 
>  <lowdin_charges> 
15 
1   -0.329564 
2   -0.353533 
3   -0.150776 
4   -0.214776 
5   0.056061 
6   -0.045048 
7   -0.272111 
8   0.165592 
9   0.15499 
10   0.152492 
11   0.177534 
12   0.159866 
13   0.160807 
14   0.154593 
15   0.183874 
 
$$$$ 
 
