PCCDB-ID:  39661 
public computational chemistry database (PCCDB) project, http://pccdb.org 
 
 10 10  0  0  0  0  0  0  0  0999 V2000 
    0.8837    0.0677   -0.0900 C   0  0  0  0  0  0  0  0  0  0  0  0 
    3.2547    1.0791   -0.0818 C   0  0  0  0  0  0  0  0  0  0  0  0 
    2.3819    0.0179   -0.0865 C   0  0  0  0  0  0  0  0  0  0  0  0 
    4.5813    0.7390   -0.0771 N   0  0  0  0  0  0  0  0  0  0  0  0 
    4.8287   -0.5068   -0.0772 N   0  0  0  0  0  0  0  0  0  0  0  0 
    3.3171   -1.4233   -0.0838 S   0  0  0  0  0  0  0  0  0  0  0  0 
    0.5413    1.1066   -0.0938 H   0  0  0  0  0  0  0  0  0  0  0  0 
    0.4648   -0.4252    0.7945 H   0  0  0  0  0  0  0  0  0  0  0  0 
    0.4683   -0.4306   -0.9730 H   0  0  0  0  0  0  0  0  0  0  0  0 
    2.9787    2.1267   -0.0830 H   0  0  0  0  0  0  0  0  0  0  0  0 
  1  3  1  0  0  0  0 
  1  8  1  0  0  0  0 
  2  4  1  0  0  0  0 
  3  6  1  0  0  0  0 
  3  2  2  0  0  0  0 
  5  4  2  0  0  0  0 
  6  5  1  0  0  0  0 
  7  1  1  0  0  0  0 
  9  1  1  0  0  0  0 
 10  2  1  0  0  0  0 
M  END 
>  <HBA> 
3 
 
>  <HBD> 
0 
 
>  <TPSA> 
54.02 
 
>  <cid> 
39661 
 
>  <dipole> 
4.13 
 
>  <excitation_energy_1> 
4.15 
 
>  <excitation_energy_2> 
4.995 
 
>  <excitation_energy_3> 
5.528 
 
>  <excitation_energy_4> 
5.804 
 
>  <homo_energy> 
-7.059 
 
>  <homo_lumo_gap> 
5.538 
 
>  <logP> 
0.847 
 
>  <lumo_energy> 
-1.521 
 
>  <melting_point> 
37.39 
 
>  <molecular_refractivity> 
24.88 
 
>  <oscillator_strength_1> 
0.002 
 
>  <oscillator_strength_2> 
0.0097 
 
>  <oscillator_strength_3> 
0.0002 
 
>  <oscillator_strength_4> 
0.1486 
 
>  <open_babel_can_smiles> 
Cc1cnns1 
 
>  <mulliken_charges> 
10 
1   -0.502187 
2   0.016041 
3   -0.113864 
4   -0.190381 
5   -0.272738 
6   0.347324 
7   0.17842 
8   0.185942 
9   0.185787 
10   0.165656 
 
>  <lowdin_charges> 
10 
1   -0.431788 
2   -0.175427 
3   -0.145796 
4   -0.07247 
5   -0.224986 
6   0.354704 
7   0.170386 
8   0.17537 
9   0.175294 
10   0.174713 
 
$$$$ 
 
