PCCDB-ID:  20870 
public computational chemistry database (PCCDB) project, http://pccdb.org 
 
 31 31  0  0  0  0  0  0  0  0999 V2000 
    4.9290   -1.9171    0.2942 C   0  0  0  0  0  0  0  0  0  0  0  0 
    1.9799    0.8249   -2.5163 C   0  0  0  0  0  0  0  0  0  0  0  0 
    3.6780   -0.4602   -3.6365 C   0  0  0  0  0  0  0  0  0  0  0  0 
    1.4294    1.1711   -3.7418 C   0  0  0  0  0  0  0  0  0  0  0  0 
    3.1477   -0.1035   -4.8737 C   0  0  0  0  0  0  0  0  0  0  0  0 
    3.1002   -0.0143   -2.4404 C   0  0  0  0  0  0  0  0  0  0  0  0 
    2.0010    0.7069   -4.9399 C   0  0  0  0  0  0  0  0  0  0  0  0 
    3.6250   -0.3496   -1.0756 C   0  0  0  0  0  0  0  0  0  0  0  0 
    0.5982    2.4983   -8.6506 C   0  0  0  0  0  0  0  0  0  0  0  0 
    1.4383    0.4378   -7.3623 C   0  0  0  0  0  0  0  0  0  0  0  0 
   -0.1731    2.7380   -9.6440 N   0  0  0  0  0  0  0  0  0  0  0  0 
    1.0419    3.4135   -7.6768 N   0  0  0  0  0  0  0  0  0  0  0  0 
    1.7424   -0.7879   -7.5812 N   0  0  0  0  0  0  0  0  0  0  0  0 
    4.4374   -1.4520   -0.9921 N   0  0  0  0  0  0  0  0  0  0  0  0 
    1.4469    1.1344   -6.1543 N   0  0  0  0  0  0  0  0  0  0  0  0 
    1.0399    1.1874   -8.4788 N   0  0  0  0  0  0  0  0  0  0  0  0 
    3.3503    0.3340   -0.0922 O   0  0  0  0  0  0  0  0  0  0  0  0 
    5.8309   -2.5171    0.1431 H   0  0  0  0  0  0  0  0  0  0  0  0 
    4.1845   -2.5187    0.8333 H   0  0  0  0  0  0  0  0  0  0  0  0 
    5.1692   -1.0476    0.9076 H   0  0  0  0  0  0  0  0  0  0  0  0 
    1.5484    1.1909   -1.5905 H   0  0  0  0  0  0  0  0  0  0  0  0 
    4.5876   -1.0549   -3.6189 H   0  0  0  0  0  0  0  0  0  0  0  0 
    0.5441    1.8014   -3.7822 H   0  0  0  0  0  0  0  0  0  0  0  0 
    3.6448   -0.4164   -5.7850 H   0  0  0  0  0  0  0  0  0  0  0  0 
   -0.3495    3.7387   -9.7430 H   0  0  0  0  0  0  0  0  0  0  0  0 
    0.8125    4.3721   -7.9142 H   0  0  0  0  0  0  0  0  0  0  0  0 
    2.0253    3.3196   -7.4377 H   0  0  0  0  0  0  0  0  0  0  0  0 
    1.9193   -1.2837   -6.7098 H   0  0  0  0  0  0  0  0  0  0  0  0 
    4.4137   -2.1160   -1.7522 H   0  0  0  0  0  0  0  0  0  0  0  0 
    0.8612    1.9615   -6.1161 H   0  0  0  0  0  0  0  0  0  0  0  0 
    0.8021    0.5926   -9.2629 H   0  0  0  0  0  0  0  0  0  0  0  0 
  1 19  1  0  0  0  0 
  1 20  1  0  0  0  0 
  2  6  1  0  0  0  0 
  2 21  1  0  0  0  0 
  3 22  1  0  0  0  0 
  3  6  2  0  0  0  0 
  4  2  2  0  0  0  0 
  5  3  1  0  0  0  0 
  6  8  1  0  0  0  0 
  7  5  2  0  0  0  0 
  7  4  1  0  0  0  0 
  8 14  1  0  0  0  0 
  8 17  2  0  0  0  0 
  9 16  1  0  0  0  0 
  9 12  2  0  0  0  0 
 10 15  1  0  0  0  0 
 11  9  1  0  0  0  0 
 12 27  1  0  0  0  0 
 13 10  2  0  0  0  0 
 13 28  1  0  0  0  0 
 14  1  1  0  0  0  0 
 15 30  1  0  0  0  0 
 15  7  1  0  0  0  0 
 16 10  1  0  0  0  0 
 18  1  1  0  0  0  0 
 23  4  1  0  0  0  0 
 24  5  1  0  0  0  0 
 25 11  1  0  0  0  0 
 26 12  1  0  0  0  0 
 29 14  1  0  0  0  0 
 31 16  1  0  0  0  0 
M  RAD  1  11   2 
M  END 
>  <HBA> 
7 
 
>  <HBD> 
4 
 
>  <TPSA> 
131.88 
 
>  <cid> 
20870 
 
>  <dipole> 
2.2 
 
>  <excitation_energy_1> 
4.452 
 
>  <excitation_energy_2> 
4.569 
 
>  <excitation_energy_3> 
4.629 
 
>  <excitation_energy_4> 
4.893 
 
>  <homo_energy> 
-5.987 
 
>  <homo_lumo_gap> 
4.993 
 
>  <logP> 
1.758 
 
>  <lumo_energy> 
-0.993 
 
>  <melting_point> 
271.58 
 
>  <molecular_refractivity> 
65.26 
 
>  <oscillator_strength_1> 
0.3412 
 
>  <oscillator_strength_2> 
0.0127 
 
>  <oscillator_strength_3> 
0.0045 
 
>  <oscillator_strength_4> 
0.2256 
 
>  <open_babel_can_smiles> 
CNC(=O)c1ccc(cc1)NC(=N)NC(=[NH2])[NH] 
 
>  <mulliken_charges> 
31 
1   -0.299951 
2   -0.162863 
3   -0.201621 
4   -0.198861 
5   -0.189887 
6   0.074874 
7   0.364674 
8   0.552695 
9   0.564538 
10   0.626237 
11   -0.616625 
12   -0.765325 
13   -0.642308 
14   -0.601443 
15   -0.749021 
16   -0.623961 
17   -0.525239 
18   0.150978 
19   0.160434 
20   0.195592 
21   0.167312 
22   0.134736 
23   0.136629 
24   0.160103 
25   0.273427 
26   0.33187 
27   0.343158 
28   0.290889 
29   0.32444 
30   0.360731 
31   0.363791 
 
>  <lowdin_charges> 
31 
1   -0.352779 
2   -0.122698 
3   -0.150358 
4   -0.185394 
5   -0.196911 
6   -0.057338 
7   0.064191 
8   0.16205 
9   0.126185 
10   0.134528 
11   -0.450253 
12   -0.504998 
13   -0.460748 
14   -0.286594 
15   -0.273377 
16   -0.252966 
17   -0.31398 
18   0.153919 
19   0.15148 
20   0.178126 
21   0.180512 
22   0.159059 
23   0.160794 
24   0.172479 
25   0.24904 
26   0.280797 
27   0.28543 
28   0.259279 
29   0.280618 
30   0.29628 
31   0.31363 
 
$$$$ 
 
