PCCDB-ID:  23528 
public computational chemistry database (PCCDB) project, http://pccdb.org 
 
 24 23  0  0  0  0  0  0  0  0999 V2000 
    1.4111    1.3217   -2.0029 C   0  0  0  0  0  0  0  0  0  0  0  0 
    5.7939    3.2629   -2.6224 C   0  0  0  0  0  0  0  0  0  0  0  0 
    7.6057    1.7645   -1.7544 C   0  0  0  0  0  0  0  0  0  0  0  0 
    5.5196    0.2165   -0.1328 C   0  0  0  0  0  0  0  0  0  0  0  0 
    2.9121    1.0260   -2.0837 C   0  0  0  0  0  0  0  0  0  0  0  0 
    3.7281    1.7667   -1.0043 C   0  0  0  0  0  0  0  0  0  0  0  0 
    6.1273    2.0853   -1.7312 C   0  0  0  0  0  0  0  0  0  0  0  0 
    5.2084    1.4118   -1.0085 C   0  0  0  0  0  0  0  0  0  0  0  0 
    0.8559    0.7914   -2.7852 H   0  0  0  0  0  0  0  0  0  0  0  0 
    1.2109    2.3940   -2.1212 H   0  0  0  0  0  0  0  0  0  0  0  0 
    0.9978    1.0145   -1.0342 H   0  0  0  0  0  0  0  0  0  0  0  0 
    6.3393    4.1618   -2.3005 H   0  0  0  0  0  0  0  0  0  0  0  0 
    4.7315    3.5104   -2.6535 H   0  0  0  0  0  0  0  0  0  0  0  0 
    6.1156    3.0639   -3.6546 H   0  0  0  0  0  0  0  0  0  0  0  0 
    7.9331    1.5133   -2.7736 H   0  0  0  0  0  0  0  0  0  0  0  0 
    7.8951    0.9407   -1.1004 H   0  0  0  0  0  0  0  0  0  0  0  0 
    8.1915    2.6449   -1.4535 H   0  0  0  0  0  0  0  0  0  0  0  0 
    5.3720    0.4643    0.9284 H   0  0  0  0  0  0  0  0  0  0  0  0 
    6.5339   -0.1701   -0.2450 H   0  0  0  0  0  0  0  0  0  0  0  0 
    4.8294   -0.6094   -0.3529 H   0  0  0  0  0  0  0  0  0  0  0  0 
    3.2938    1.3072   -3.0739 H   0  0  0  0  0  0  0  0  0  0  0  0 
    3.0789   -0.0556   -1.9896 H   0  0  0  0  0  0  0  0  0  0  0  0 
    3.3090    1.5127   -0.0197 H   0  0  0  0  0  0  0  0  0  0  0  0 
    3.5727    2.8451   -1.1211 H   0  0  0  0  0  0  0  0  0  0  0  0 
  1 11  1  0  0  0  0 
  2 12  1  0  0  0  0 
  2  7  1  0  0  0  0 
  3  7  1  0  0  0  0 
  3 17  1  0  0  0  0 
  3 16  1  0  0  0  0 
  4 18  1  0  0  0  0 
  5  1  1  0  0  0  0 
  5 22  1  0  0  0  0 
  5  6  1  0  0  0  0 
  6 23  1  0  0  0  0 
  7  8  2  0  0  0  0 
  8  6  1  0  0  0  0 
  8  4  1  0  0  0  0 
  9  1  1  0  0  0  0 
 10  1  1  0  0  0  0 
 13  2  1  0  0  0  0 
 14  2  1  0  0  0  0 
 15  3  1  0  0  0  0 
 19  4  1  0  0  0  0 
 20  4  1  0  0  0  0 
 21  5  1  0  0  0  0 
 24  6  1  0  0  0  0 
M  END 
>  <HBA> 
0 
 
>  <HBD> 
0 
 
>  <TPSA> 
0.0 
 
>  <cid> 
23528 
 
>  <dipole> 
0.06 
 
>  <excitation_energy_1> 
5.458 
 
>  <excitation_energy_2> 
5.915 
 
>  <excitation_energy_3> 
5.95 
 
>  <excitation_energy_4> 
6.077 
 
>  <homo_energy> 
-5.875 
 
>  <homo_lumo_gap> 
6.841 
 
>  <logP> 
3.143 
 
>  <lumo_energy> 
0.966 
 
>  <melting_point> 
-11.26 
 
>  <molecular_refractivity> 
40.1 
 
>  <oscillator_strength_1> 
0.0072 
 
>  <oscillator_strength_2> 
0.0108 
 
>  <oscillator_strength_3> 
0.0024 
 
>  <oscillator_strength_4> 
0.0023 
 
>  <open_babel_can_smiles> 
CCCC(=C(C)C)C 
 
>  <mulliken_charges> 
24 
1   -0.441009 
2   -0.507544 
3   -0.508394 
4   -0.519155 
5   -0.245097 
6   -0.32807 
7   0.119714 
8   0.121012 
9   0.142187 
10   0.140485 
11   0.141237 
12   0.147251 
13   0.151649 
14   0.148355 
15   0.147785 
16   0.151084 
17   0.147913 
18   0.151125 
19   0.150766 
20   0.150129 
21   0.137593 
22   0.133406 
23   0.129545 
24   0.138032 
 
>  <lowdin_charges> 
24 
1   -0.444994 
2   -0.442635 
3   -0.444441 
4   -0.442828 
5   -0.26789 
6   -0.274673 
7   -0.028349 
8   -0.032089 
9   0.150704 
10   0.144139 
11   0.145913 
12   0.152143 
13   0.153506 
14   0.151746 
15   0.151098 
16   0.154679 
17   0.152906 
18   0.151654 
19   0.152459 
20   0.152605 
21   0.141381 
22   0.138011 
23   0.141486 
24   0.143465 
 
$$$$ 
 
