PCCDB-ID:  23527 
public computational chemistry database (PCCDB) project, http://pccdb.org 
 
 22 22  0  0  0  0  0  0  0  0999 V2000 
    0.7367    1.2130   -0.2159 C   0  0  0  0  0  0  0  0  0  0  0  0 
   -1.4306   -0.0734   -0.2292 C   0  0  0  0  0  0  0  0  0  0  0  0 
    1.4366   -0.0606    0.2692 C   0  0  0  0  0  0  0  0  0  0  0  0 
   -0.6468   -1.2983    0.2557 C   0  0  0  0  0  0  0  0  0  0  0  0 
   -1.4531    2.4836   -0.3460 C   0  0  0  0  0  0  0  0  0  0  0  0 
   -0.7451    1.2373    0.2015 C   0  0  0  0  0  0  0  0  0  0  0  0 
   -2.8319    2.5918    0.1504 N   0  0  0  0  0  0  0  0  0  0  0  0 
    0.7278   -1.2344   -0.2432 N   0  0  0  0  0  0  0  0  0  0  0  0 
    0.8115    1.2567   -1.3112 H   0  0  0  0  0  0  0  0  0  0  0  0 
    1.2564    2.0945    0.1831 H   0  0  0  0  0  0  0  0  0  0  0  0 
   -2.4512   -0.1176    0.1713 H   0  0  0  0  0  0  0  0  0  0  0  0 
   -1.4970   -0.1108   -1.3261 H   0  0  0  0  0  0  0  0  0  0  0  0 
    1.4843   -0.0428    1.3773 H   0  0  0  0  0  0  0  0  0  0  0  0 
    2.4688   -0.0896   -0.0994 H   0  0  0  0  0  0  0  0  0  0  0  0 
   -1.1108   -2.2176   -0.1209 H   0  0  0  0  0  0  0  0  0  0  0  0 
   -0.6956   -1.3361    1.3631 H   0  0  0  0  0  0  0  0  0  0  0  0 
   -1.3760    2.4794   -1.4503 H   0  0  0  0  0  0  0  0  0  0  0  0 
   -0.9106    3.3729    0.0002 H   0  0  0  0  0  0  0  0  0  0  0  0 
   -0.7958    1.2951    1.2994 H   0  0  0  0  0  0  0  0  0  0  0  0 
   -3.4195    1.9023   -0.3156 H   0  0  0  0  0  0  0  0  0  0  0  0 
   -3.2156    3.4990   -0.1094 H   0  0  0  0  0  0  0  0  0  0  0  0 
    1.2281   -2.0801    0.0226 H   0  0  0  0  0  0  0  0  0  0  0  0 
  1 10  1  0  0  0  0 
  1  6  1  0  0  0  0 
  1  3  1  0  0  0  0 
  2 11  1  0  0  0  0 
  2  6  1  0  0  0  0 
  2  4  1  0  0  0  0 
  3 13  1  0  0  0  0 
  4 16  1  0  0  0  0 
  5 18  1  0  0  0  0 
  5  7  1  0  0  0  0 
  5  6  1  0  0  0  0 
  6 19  1  0  0  0  0 
  8 22  1  0  0  0  0 
  8  4  1  0  0  0  0 
  8  3  1  0  0  0  0 
  9  1  1  0  0  0  0 
 12  2  1  0  0  0  0 
 14  3  1  0  0  0  0 
 15  4  1  0  0  0  0 
 17  5  1  0  0  0  0 
 20  7  1  0  0  0  0 
 21  7  1  0  0  0  0 
M  END 
>  <HBA> 
2 
 
>  <HBD> 
2 
 
>  <TPSA> 
38.05 
 
>  <cid> 
23527 
 
>  <dipole> 
0.42 
 
>  <excitation_energy_1> 
5.284 
 
>  <excitation_energy_2> 
5.604 
 
>  <excitation_energy_3> 
5.716 
 
>  <excitation_energy_4> 
6.027 
 
>  <homo_energy> 
-5.845 
 
>  <homo_lumo_gap> 
8.022 
 
>  <logP> 
0.974 
 
>  <lumo_energy> 
2.177 
 
>  <melting_point> 
77.44 
 
>  <molecular_refractivity> 
38.27 
 
>  <oscillator_strength_1> 
0.0028 
 
>  <oscillator_strength_2> 
0.0115 
 
>  <oscillator_strength_3> 
0.0039 
 
>  <oscillator_strength_4> 
0.0102 
 
>  <open_babel_can_smiles> 
NCC1CCNCC1 
 
>  <mulliken_charges> 
22 
1   -0.255778 
2   -0.264683 
3   -0.132548 
4   -0.132773 
5   -0.142422 
6   -0.067531 
7   -0.722433 
8   -0.545258 
9   0.136079 
10   0.125354 
11   0.132479 
12   0.132218 
13   0.107151 
14   0.132939 
15   0.132733 
16   0.109057 
17   0.109209 
18   0.132917 
19   0.127993 
20   0.296339 
21   0.295407 
22   0.293551 
 
>  <lowdin_charges> 
22 
1   -0.280569 
2   -0.282703 
3   -0.199423 
4   -0.200232 
5   -0.20294 
6   -0.132418 
7   -0.562646 
8   -0.369733 
9   0.14132 
10   0.142841 
11   0.143897 
12   0.139228 
13   0.110701 
14   0.142243 
15   0.143702 
16   0.11182 
17   0.113155 
18   0.14176 
19   0.138336 
20   0.253002 
21   0.254707 
22   0.253953 
 
$$$$ 
 
