PCCDB-ID:  8712 
public computational chemistry database (PCCDB) project, http://pccdb.org 
 
 16 16  0  0  0  0  0  0  0  0999 V2000 
    0.9486   -0.0788    0.1392 C   0  0  0  0  0  0  0  0  0  0  0  0 
    4.5711   -1.2807   -0.0573 C   0  0  0  0  0  0  0  0  0  0  0  0 
    5.2678   -0.0750   -0.1227 C   0  0  0  0  0  0  0  0  0  0  0  0 
    3.1793   -1.2641    0.0285 C   0  0  0  0  0  0  0  0  0  0  0  0 
    4.5720    1.1326   -0.1020 C   0  0  0  0  0  0  0  0  0  0  0  0 
    2.4547   -0.0669    0.0506 C   0  0  0  0  0  0  0  0  0  0  0  0 
    3.1746    1.1433   -0.0160 C   0  0  0  0  0  0  0  0  0  0  0  0 
    2.2460    2.6764    0.0114 S   0  0  0  0  0  0  0  0  0  0  0  0 
    0.5686   -1.1017    0.2183 H   0  0  0  0  0  0  0  0  0  0  0  0 
    0.4892    0.3825   -0.7450 H   0  0  0  0  0  0  0  0  0  0  0  0 
    0.5898    0.4813    1.0126 H   0  0  0  0  0  0  0  0  0  0  0  0 
    5.1047   -2.2268   -0.0722 H   0  0  0  0  0  0  0  0  0  0  0  0 
    6.3523   -0.0674   -0.1907 H   0  0  0  0  0  0  0  0  0  0  0  0 
    2.6318   -2.2025    0.0805 H   0  0  0  0  0  0  0  0  0  0  0  0 
    5.1203    2.0697   -0.1522 H   0  0  0  0  0  0  0  0  0  0  0  0 
    3.3120    3.4970   -0.0774 H   0  0  0  0  0  0  0  0  0  0  0  0 
  1  9  1  0  0  0  0 
  1 11  1  0  0  0  0 
  2  4  2  0  0  0  0 
  3  5  2  0  0  0  0 
  3  2  1  0  0  0  0 
  4  6  1  0  0  0  0 
  4 14  1  0  0  0  0 
  5  7  1  0  0  0  0 
  6  1  1  0  0  0  0 
  7  8  1  0  0  0  0 
  7  6  2  0  0  0  0 
 10  1  1  0  0  0  0 
 12  2  1  0  0  0  0 
 13  3  1  0  0  0  0 
 15  5  1  0  0  0  0 
 16  8  1  0  0  0  0 
M  END 
>  <HBA> 
1 
 
>  <HBD> 
1 
 
>  <TPSA> 
38.8 
 
>  <cid> 
8712 
 
>  <dipole> 
0.89 
 
>  <excitation_energy_1> 
4.828 
 
>  <excitation_energy_2> 
4.836 
 
>  <excitation_energy_3> 
5.267 
 
>  <excitation_energy_4> 
5.422 
 
>  <homo_energy> 
-5.872 
 
>  <homo_lumo_gap> 
5.85 
 
>  <logP> 
2.284 
 
>  <lumo_energy> 
-0.022 
 
>  <melting_point> 
32.92 
 
>  <molecular_refractivity> 
38.66 
 
>  <oscillator_strength_1> 
0.0051 
 
>  <oscillator_strength_2> 
0.0194 
 
>  <oscillator_strength_3> 
0.1737 
 
>  <oscillator_strength_4> 
0.011 
 
>  <open_babel_can_smiles> 
Cc1ccccc1S 
 
>  <mulliken_charges> 
16 
1   -0.547143 
2   -0.132979 
3   -0.11972 
4   -0.17004 
5   -0.152676 
6   0.155082 
7   -0.117114 
8   -0.029736 
9   0.156751 
10   0.176569 
11   0.176622 
12   0.129606 
13   0.131177 
14   0.125479 
15   0.125519 
16   0.092602 
 
>  <lowdin_charges> 
16 
1   -0.445692 
2   -0.165227 
3   -0.152071 
4   -0.159929 
5   -0.17341 
6   -0.009693 
7   -0.119487 
8   -0.0193 
9   0.158564 
10   0.167944 
11   0.167994 
12   0.158684 
13   0.157312 
14   0.156807 
15   0.156478 
16   0.121027 
 
$$$$ 
 
