PCCDB-ID:  26272 
public computational chemistry database (PCCDB) project, http://pccdb.org 
 
 26 27  0  0  0  0  0  0  0  0999 V2000 
    6.2417   -2.0374   -0.9216 C   0  0  0  0  0  0  0  0  0  0  0  0 
    5.7309   -3.4928    4.8523 C   0  0  0  0  0  0  0  0  0  0  0  0 
    6.6933   -2.5817    5.2796 C   0  0  0  0  0  0  0  0  0  0  0  0 
    4.9296   -3.2043    3.7447 C   0  0  0  0  0  0  0  0  0  0  0  0 
    8.1294    0.5424    4.1298 C   0  0  0  0  0  0  0  0  0  0  0  0 
    6.8557    1.1390    3.5521 C   0  0  0  0  0  0  0  0  0  0  0  0 
    6.8496   -1.3675    4.6084 C   0  0  0  0  0  0  0  0  0  0  0  0 
    5.0867   -1.9922    3.0861 C   0  0  0  0  0  0  0  0  0  0  0  0 
    6.0325   -1.0520    3.5114 C   0  0  0  0  0  0  0  0  0  0  0  0 
    4.6911   -1.6674    0.7888 C   0  0  0  0  0  0  0  0  0  0  0  0 
    5.8458   -2.0787    0.4746 N   0  0  0  0  0  0  0  0  0  0  0  0 
    3.6992   -1.1888   -0.0024 O   0  0  0  0  0  0  0  0  0  0  0  0 
    7.8076   -0.4907    5.0604 O   0  0  0  0  0  0  0  0  0  0  0  0 
    6.1256    0.1393    2.8413 O   0  0  0  0  0  0  0  0  0  0  0  0 
    4.2133   -1.6592    2.0555 O   0  0  0  0  0  0  0  0  0  0  0  0 
    7.1851   -2.5773   -1.0414 H   0  0  0  0  0  0  0  0  0  0  0  0 
    6.4094   -1.0082   -1.2773 H   0  0  0  0  0  0  0  0  0  0  0  0 
    5.5149   -2.5173   -1.6019 H   0  0  0  0  0  0  0  0  0  0  0  0 
    5.6104   -4.4360    5.3761 H   0  0  0  0  0  0  0  0  0  0  0  0 
    7.3379   -2.7875    6.1281 H   0  0  0  0  0  0  0  0  0  0  0  0 
    4.1762   -3.8985    3.3885 H   0  0  0  0  0  0  0  0  0  0  0  0 
    8.7042    1.2887    4.6845 H   0  0  0  0  0  0  0  0  0  0  0  0 
    8.7514    0.1356    3.3206 H   0  0  0  0  0  0  0  0  0  0  0  0 
    7.0752    1.9298    2.8302 H   0  0  0  0  0  0  0  0  0  0  0  0 
    6.2344    1.5503    4.3597 H   0  0  0  0  0  0  0  0  0  0  0  0 
    4.0131   -1.2020   -0.9202 H   0  0  0  0  0  0  0  0  0  0  0  0 
  1 11  1  0  0  0  0 
  2  3  1  0  0  0  0 
  2 19  1  0  0  0  0 
  3 20  1  0  0  0  0 
  4  2  2  0  0  0  0 
  5 22  1  0  0  0  0 
  5 13  1  0  0  0  0 
  6  5  1  0  0  0  0 
  6 25  1  0  0  0  0 
  7 13  1  0  0  0  0 
  7  3  2  0  0  0  0 
  8  9  2  0  0  0  0 
  8  4  1  0  0  0  0 
  9  7  1  0  0  0  0 
 10 15  1  0  0  0  0 
 11 10  2  0  0  0  0 
 12 10  1  0  0  0  0 
 14  9  1  0  0  0  0 
 14  6  1  0  0  0  0 
 15  8  1  0  0  0  0 
 16  1  1  0  0  0  0 
 17  1  1  0  0  0  0 
 18  1  1  0  0  0  0 
 21  4  1  0  0  0  0 
 23  5  1  0  0  0  0 
 24  6  1  0  0  0  0 
 26 12  1  0  0  0  0 
M  END 
>  <HBA> 
5 
 
>  <HBD> 
1 
 
>  <TPSA> 
56.79 
 
>  <cid> 
26272 
 
>  <dipole> 
2.75 
 
>  <excitation_energy_1> 
4.935 
 
>  <excitation_energy_2> 
5.162 
 
>  <excitation_energy_3> 
5.379 
 
>  <excitation_energy_4> 
5.582 
 
>  <homo_energy> 
-5.682 
 
>  <homo_lumo_gap> 
5.908 
 
>  <logP> 
1.567 
 
>  <lumo_energy> 
0.226 
 
>  <melting_point> 
101.46 
 
>  <molecular_refractivity> 
52.0 
 
>  <oscillator_strength_1> 
0.0243 
 
>  <oscillator_strength_2> 
0.003 
 
>  <oscillator_strength_3> 
0.0054 
 
>  <oscillator_strength_4> 
0.0086 
 
>  <open_babel_can_smiles> 
C/N=C(/Oc1cccc2c1OCCO2)\O 
 
>  <mulliken_charges> 
26 
1   -0.355607 
2   -0.150015 
3   -0.182251 
4   -0.16752 
5   -0.060822 
6   -0.058795 
7   0.33338 
8   0.304134 
9   0.321722 
10   0.675166 
11   -0.425227 
12   -0.589234 
13   -0.524308 
14   -0.521752 
15   -0.521869 
16   0.172965 
17   0.149219 
18   0.128546 
19   0.131609 
20   0.138062 
21   0.137995 
22   0.158573 
23   0.162885 
24   0.158938 
25   0.160482 
26   0.423724 
 
>  <lowdin_charges> 
26 
1   -0.36465 
2   -0.159237 
3   -0.18085 
4   -0.178707 
5   -0.143585 
6   -0.140915 
7   0.064886 
8   0.091687 
9   0.051402 
10   0.193109 
11   -0.261938 
12   -0.354618 
13   -0.207307 
14   -0.197326 
15   -0.138676 
16   0.162837 
17   0.141326 
18   0.13053 
19   0.160781 
20   0.168325 
21   0.169803 
22   0.162382 
23   0.151738 
24   0.162246 
25   0.150824 
26   0.365932 
 
$$$$ 
 
