PCCDB-ID:  70660 
public computational chemistry database (PCCDB) project, http://pccdb.org 
 
 25 26  0  0  0  0  0  0  0  0999 V2000 
    1.8807    1.5946    0.0277 C   0  0  0  0  0  0  0  0  0  0  0  0 
    3.6308   -1.5308    1.4970 C   0  0  0  0  0  0  0  0  0  0  0  0 
    3.5450    0.7172    2.3655 C   0  0  0  0  0  0  0  0  0  0  0  0 
    4.4102   -1.9282    2.5750 C   0  0  0  0  0  0  0  0  0  0  0  0 
    4.3144    0.3313    3.4596 C   0  0  0  0  0  0  0  0  0  0  0  0 
    6.4815   -2.6120    6.4316 C   0  0  0  0  0  0  0  0  0  0  0  0 
    7.1011   -1.4300    6.4140 C   0  0  0  0  0  0  0  0  0  0  0  0 
    2.3589    0.1594    0.1785 C   0  0  0  0  0  0  0  0  0  0  0  0 
    3.1889   -0.2051    1.3718 C   0  0  0  0  0  0  0  0  0  0  0  0 
    4.7527   -0.9946    3.5646 C   0  0  0  0  0  0  0  0  0  0  0  0 
    5.4666   -2.6476    5.3300 C   0  0  0  0  0  0  0  0  0  0  0  0 
    6.5368   -0.5998    5.3020 C   0  0  0  0  0  0  0  0  0  0  0  0 
    5.5479   -1.3950    4.6760 N   0  0  0  0  0  0  0  0  0  0  0  0 
    2.0718   -0.6823   -0.6595 O   0  0  0  0  0  0  0  0  0  0  0  0 
    4.7208   -3.5594    5.0495 O   0  0  0  0  0  0  0  0  0  0  0  0 
    6.8575    0.5264    4.9920 O   0  0  0  0  0  0  0  0  0  0  0  0 
    2.7279    2.2888   -0.0276 H   0  0  0  0  0  0  0  0  0  0  0  0 
    1.2642    1.8983    0.8822 H   0  0  0  0  0  0  0  0  0  0  0  0 
    1.2921    1.6714   -0.8880 H   0  0  0  0  0  0  0  0  0  0  0  0 
    3.3546   -2.2402    0.7241 H   0  0  0  0  0  0  0  0  0  0  0  0 
    3.2188    1.7503    2.2994 H   0  0  0  0  0  0  0  0  0  0  0  0 
    4.7435   -2.9545    2.6600 H   0  0  0  0  0  0  0  0  0  0  0  0 
    4.5856    1.0549    4.2173 H   0  0  0  0  0  0  0  0  0  0  0  0 
    6.6226   -3.4575    7.0925 H   0  0  0  0  0  0  0  0  0  0  0  0 
    7.8873   -1.0522    7.0548 H   0  0  0  0  0  0  0  0  0  0  0  0 
  1  8  1  0  0  0  0 
  1 18  1  0  0  0  0 
  2  4  1  0  0  0  0 
  3  5  2  0  0  0  0 
  4 22  1  0  0  0  0 
  4 10  2  0  0  0  0 
  5 10  1  0  0  0  0 
  5 23  1  0  0  0  0 
  6 24  1  0  0  0  0 
  7  6  2  0  0  0  0 
  7 25  1  0  0  0  0 
  8  9  1  0  0  0  0 
  9  2  2  0  0  0  0 
  9  3  1  0  0  0  0 
 10 13  1  0  0  0  0 
 11  6  1  0  0  0  0 
 12  7  1  0  0  0  0 
 13 12  1  0  0  0  0 
 13 11  1  0  0  0  0 
 14  8  2  0  0  0  0 
 15 11  2  0  0  0  0 
 16 12  2  0  0  0  0 
 17  1  1  0  0  0  0 
 19  1  1  0  0  0  0 
 20  2  1  0  0  0  0 
 21  3  1  0  0  0  0 
M  END 
>  <HBA> 
4 
 
>  <HBD> 
0 
 
>  <TPSA> 
54.45 
 
>  <cid> 
70660 
 
>  <dipole> 
4.26 
 
>  <excitation_energy_1> 
3.032 
 
>  <excitation_energy_2> 
3.407 
 
>  <excitation_energy_3> 
3.445 
 
>  <excitation_energy_4> 
3.505 
 
>  <homo_energy> 
-6.719 
 
>  <homo_lumo_gap> 
3.769 
 
>  <logP> 
1.384 
 
>  <lumo_energy> 
-2.95 
 
>  <melting_point> 
122.38 
 
>  <molecular_refractivity> 
61.2 
 
>  <oscillator_strength_1> 
0.0037 
 
>  <oscillator_strength_2> 
0.0001 
 
>  <oscillator_strength_3> 
0.0001 
 
>  <oscillator_strength_4> 
0.0 
 
>  <open_babel_can_smiles> 
O=C1C=CC(=O)N1c1ccc(cc1)C(=O)C 
 
>  <mulliken_charges> 
25 
1   -0.543697 
2   -0.180472 
3   -0.202844 
4   -0.142136 
5   -0.145684 
6   -0.16057 
7   -0.161437 
8   0.408151 
9   0.089893 
10   0.317035 
11   0.597612 
12   0.598159 
13   -0.634781 
14   -0.451703 
15   -0.457619 
16   -0.460473 
17   0.172146 
18   0.170871 
19   0.18267 
20   0.17034 
21   0.140463 
22   0.165324 
23   0.163247 
24   0.182957 
25   0.182549 
 
>  <lowdin_charges> 
25 
1   -0.477882 
2   -0.123711 
3   -0.143832 
4   -0.158682 
5   -0.163591 
6   -0.148437 
7   -0.148205 
8   0.164014 
9   -0.053567 
10   0.065087 
11   0.176687 
12   0.173868 
13   -0.083016 
14   -0.242048 
15   -0.216267 
16   -0.21781 
17   0.170935 
18   0.170457 
19   0.175879 
20   0.181413 
21   0.163954 
22   0.177045 
23   0.178224 
24   0.189693 
25   0.189795 
 
$$$$ 
 
