PCCDB-ID:  37051 
public computational chemistry database (PCCDB) project, http://pccdb.org 
 
 27 27  0  0  0  0  0  0  0  0999 V2000 
    3.7877    2.9858    1.4825 C   0  0  0  0  0  0  0  0  0  0  0  0 
    3.7878    1.5266    1.9093 C   0  0  0  0  0  0  0  0  0  0  0  0 
    9.2860   -0.4951    2.4816 C   0  0  0  0  0  0  0  0  0  0  0  0 
    9.1875    0.5748    1.5897 C   0  0  0  0  0  0  0  0  0  0  0  0 
    8.3125   -1.4961    2.4795 C   0  0  0  0  0  0  0  0  0  0  0  0 
    8.1175    0.6462    0.6980 C   0  0  0  0  0  0  0  0  0  0  0  0 
    7.2421   -1.4298    1.5878 C   0  0  0  0  0  0  0  0  0  0  0  0 
    7.1484   -0.3568    0.7018 C   0  0  0  0  0  0  0  0  0  0  0  0 
    6.1624   -0.8644   -1.5205 C   0  0  0  0  0  0  0  0  0  0  0  0 
    4.8538    0.3476    0.1483 C   0  0  0  0  0  0  0  0  0  0  0  0 
    5.3308   -0.9229   -2.4736 N   0  0  0  0  0  0  0  0  0  0  0  0 
    6.0371   -0.2857   -0.2262 N   0  0  0  0  0  0  0  0  0  0  0  0 
    7.3982   -1.4092   -1.6481 O   0  0  0  0  0  0  0  0  0  0  0  0 
    3.8618    0.4552   -0.5515 O   0  0  0  0  0  0  0  0  0  0  0  0 
    4.9518    0.8269    1.4027 O   0  0  0  0  0  0  0  0  0  0  0  0 
    2.9368    3.5040    1.9394 H   0  0  0  0  0  0  0  0  0  0  0  0 
    3.6960    3.0694    0.3960 H   0  0  0  0  0  0  0  0  0  0  0  0 
    4.7073    3.4858    1.8036 H   0  0  0  0  0  0  0  0  0  0  0  0 
    2.8891    1.0097    1.5657 H   0  0  0  0  0  0  0  0  0  0  0  0 
    3.8747    1.4241    2.9934 H   0  0  0  0  0  0  0  0  0  0  0  0 
   10.1205   -0.5497    3.1753 H   0  0  0  0  0  0  0  0  0  0  0  0 
    9.9436    1.3549    1.5869 H   0  0  0  0  0  0  0  0  0  0  0  0 
    8.3875   -2.3321    3.1693 H   0  0  0  0  0  0  0  0  0  0  0  0 
    8.0298    1.4711   -0.0025 H   0  0  0  0  0  0  0  0  0  0  0  0 
    6.4809   -2.2039    1.5723 H   0  0  0  0  0  0  0  0  0  0  0  0 
    4.4508   -0.4732   -2.2285 H   0  0  0  0  0  0  0  0  0  0  0  0 
    7.3987   -1.7780   -2.5498 H   0  0  0  0  0  0  0  0  0  0  0  0 
  1 18  1  0  0  0  0 
  1  2  1  0  0  0  0 
  1 16  1  0  0  0  0 
  2 20  1  0  0  0  0 
  3 21  1  0  0  0  0 
  4  3  2  0  0  0  0 
  5  3  1  0  0  0  0 
  5 23  1  0  0  0  0 
  6  8  2  0  0  0  0 
  6  4  1  0  0  0  0 
  7  5  2  0  0  0  0 
  8  7  1  0  0  0  0 
  9 12  1  0  0  0  0 
 10 15  1  0  0  0  0 
 11 26  1  0  0  0  0 
 11  9  2  0  0  0  0 
 12 10  1  0  0  0  0 
 12  8  1  0  0  0  0 
 13  9  1  0  0  0  0 
 14 10  2  0  0  0  0 
 15  2  1  0  0  0  0 
 17  1  1  0  0  0  0 
 19  2  1  0  0  0  0 
 22  4  1  0  0  0  0 
 24  6  1  0  0  0  0 
 25  7  1  0  0  0  0 
 27 13  1  0  0  0  0 
M  END 
>  <HBA> 
5 
 
>  <HBD> 
1 
 
>  <TPSA> 
72.63 
 
>  <cid> 
37051 
 
>  <dipole> 
3.65 
 
>  <excitation_energy_1> 
5.288 
 
>  <excitation_energy_2> 
5.556 
 
>  <excitation_energy_3> 
5.753 
 
>  <excitation_energy_4> 
5.789 
 
>  <homo_energy> 
-6.659 
 
>  <homo_lumo_gap> 
6.327 
 
>  <logP> 
2.429 
 
>  <lumo_energy> 
-0.332 
 
>  <melting_point> 
120.08 
 
>  <molecular_refractivity> 
55.23 
 
>  <oscillator_strength_1> 
0.0002 
 
>  <oscillator_strength_2> 
0.0011 
 
>  <oscillator_strength_3> 
0.0674 
 
>  <oscillator_strength_4> 
0.0072 
 
>  <open_babel_can_smiles> 
CCOC(=O)N(c1ccccc1)C(=N)O 
 
>  <mulliken_charges> 
27 
1   -0.464244 
2   -0.040727 
3   -0.117052 
4   -0.146271 
5   -0.146044 
6   -0.114215 
7   -0.114589 
8   0.276604 
9   0.658101 
10   0.819873 
11   -0.649928 
12   -0.640689 
13   -0.601547 
14   -0.512601 
15   -0.477982 
16   0.153185 
17   0.178787 
18   0.160005 
19   0.174978 
20   0.1587 
21   0.134084 
22   0.136493 
23   0.13664 
24   0.139392 
25   0.139967 
26   0.336199 
27   0.42288 
 
>  <lowdin_charges> 
27 
1   -0.45486 
2   -0.121446 
3   -0.151173 
4   -0.15241 
5   -0.151777 
6   -0.149497 
7   -0.149892 
8   0.055168 
9   0.170025 
10   0.226699 
11   -0.450758 
12   -0.089133 
13   -0.364504 
14   -0.298536 
15   -0.186316 
16   0.161525 
17   0.164932 
18   0.157881 
19   0.161698 
20   0.153528 
21   0.160925 
22   0.161964 
23   0.161854 
24   0.166283 
25   0.166667 
26   0.282426 
27   0.368727 
 
$$$$ 
 
