PCCDB-ID:  10394 
public computational chemistry database (PCCDB) project, http://pccdb.org 
 
 22 22  0  0  0  0  0  0  0  0999 V2000 
   -1.0369    0.7635    0.3291 C   0  0  0  0  0  0  0  0  0  0  0  0 
    1.0629   -0.1288   -0.4220 C   0  0  0  0  0  0  0  0  0  0  0  0 
    0.8785    2.3889   -0.1100 C   0  0  0  0  0  0  0  0  0  0  0  0 
   -1.5740   -0.5250    0.3719 C   0  0  0  0  0  0  0  0  0  0  0  0 
    0.5438   -1.4172   -0.3840 C   0  0  0  0  0  0  0  0  0  0  0  0 
    1.1311    2.9627   -1.5289 C   0  0  0  0  0  0  0  0  0  0  0  0 
    0.2880    0.9910   -0.0684 C   0  0  0  0  0  0  0  0  0  0  0  0 
   -0.7837   -1.6207    0.0157 C   0  0  0  0  0  0  0  0  0  0  0  0 
   -0.1184    3.3719   -2.3051 C   0  0  0  0  0  0  0  0  0  0  0  0 
   -1.2418   -2.9061    0.0360 O   0  0  0  0  0  0  0  0  0  0  0  0 
   -0.2662    4.4613   -2.8018 O   0  0  0  0  0  0  0  0  0  0  0  0 
   -1.0841    2.4260   -2.4367 O   0  0  0  0  0  0  0  0  0  0  0  0 
   -1.6626    1.6058    0.6143 H   0  0  0  0  0  0  0  0  0  0  0  0 
    2.0981    0.0125   -0.7258 H   0  0  0  0  0  0  0  0  0  0  0  0 
    0.2348    3.0794    0.4477 H   0  0  0  0  0  0  0  0  0  0  0  0 
    1.8441    2.3838    0.4108 H   0  0  0  0  0  0  0  0  0  0  0  0 
   -2.6054   -0.6739    0.6859 H   0  0  0  0  0  0  0  0  0  0  0  0 
    1.1483   -2.2773   -0.6538 H   0  0  0  0  0  0  0  0  0  0  0  0 
    1.6825    2.2236   -2.1269 H   0  0  0  0  0  0  0  0  0  0  0  0 
    1.7544    3.8575   -1.4630 H   0  0  0  0  0  0  0  0  0  0  0  0 
   -2.1662   -2.9108    0.3301 H   0  0  0  0  0  0  0  0  0  0  0  0 
   -0.8381    1.6188   -1.9481 H   0  0  0  0  0  0  0  0  0  0  0  0 
  1  4  1  0  0  0  0 
  1 13  1  0  0  0  0 
  2  5  2  0  0  0  0 
  2  7  1  0  0  0  0 
  3  7  1  0  0  0  0 
  3 16  1  0  0  0  0 
  3 15  1  0  0  0  0 
  4 17  1  0  0  0  0 
  5  8  1  0  0  0  0 
  6 20  1  0  0  0  0 
  6  3  1  0  0  0  0 
  7  1  2  0  0  0  0 
  8 10  1  0  0  0  0 
  8  4  2  0  0  0  0 
  9  6  1  0  0  0  0 
 10 21  1  0  0  0  0 
 11  9  2  0  0  0  0 
 12  9  1  0  0  0  0 
 12 22  1  0  0  0  0 
 14  2  1  0  0  0  0 
 18  5  1  0  0  0  0 
 19  6  1  0  0  0  0 
M  END 
>  <HBA> 
3 
 
>  <HBD> 
2 
 
>  <TPSA> 
57.53 
 
>  <cid> 
10394 
 
>  <dipole> 
4.88 
 
>  <excitation_energy_1> 
4.936 
 
>  <excitation_energy_2> 
5.38 
 
>  <excitation_energy_3> 
5.513 
 
>  <excitation_energy_4> 
5.572 
 
>  <homo_energy> 
-6.395 
 
>  <homo_lumo_gap> 
5.791 
 
>  <logP> 
1.409 
 
>  <lumo_energy> 
-0.604 
 
>  <melting_point> 
123.96 
 
>  <molecular_refractivity> 
44.82 
 
>  <oscillator_strength_1> 
0.0306 
 
>  <oscillator_strength_2> 
0.0018 
 
>  <oscillator_strength_3> 
0.0246 
 
>  <oscillator_strength_4> 
0.083 
 
>  <open_babel_can_smiles> 
OC(=O)CCc1ccc(cc1)O 
 
>  <mulliken_charges> 
22 
1   -0.202554 
2   -0.179444 
3   -0.350047 
4   -0.18521 
5   -0.153812 
6   -0.377541 
7   0.100447 
8   0.351899 
9   0.581849 
10   -0.636413 
11   -0.442069 
12   -0.574985 
13   0.146843 
14   0.135806 
15   0.162851 
16   0.164068 
17   0.130404 
18   0.149656 
19   0.168636 
20   0.179213 
21   0.411554 
22   0.41885 
 
>  <lowdin_charges> 
22 
1   -0.163107 
2   -0.152388 
3   -0.274625 
4   -0.209224 
5   -0.179473 
6   -0.317665 
7   -0.050469 
8   0.10519 
9   0.187944 
10   -0.370216 
11   -0.244235 
12   -0.364654 
13   0.166157 
14   0.15905 
15   0.159453 
16   0.16203 
17   0.157952 
18   0.172912 
19   0.165457 
20   0.173992 
21   0.359354 
22   0.356565 
 
$$$$ 
 
