PCCDB-ID:  58980 
public computational chemistry database (PCCDB) project, http://pccdb.org 
 
 40 39  0  0  0  0  0  0  0  0999 V2000 
    2.2115   -1.8455    3.4659 C   0  0  0  0  0  0  0  0  0  0  0  0 
   12.7631   -4.7696    5.8277 C   0  0  0  0  0  0  0  0  0  0  0  0 
    2.6540   -1.4371    2.0562 C   0  0  0  0  0  0  0  0  0  0  0  0 
    3.9761   -2.0495    1.5582 C   0  0  0  0  0  0  0  0  0  0  0  0 
    5.2517   -1.6461    2.3318 C   0  0  0  0  0  0  0  0  0  0  0  0 
    5.6268   -2.5738    3.5003 C   0  0  0  0  0  0  0  0  0  0  0  0 
    6.9646   -2.2313    4.1776 C   0  0  0  0  0  0  0  0  0  0  0  0 
    6.9643   -0.9021    4.9456 C   0  0  0  0  0  0  0  0  0  0  0  0 
    8.2865   -0.6235    5.6952 C   0  0  0  0  0  0  0  0  0  0  0  0 
   10.8020   -2.3407    5.5094 C   0  0  0  0  0  0  0  0  0  0  0  0 
   11.1603   -3.5225    4.5920 C   0  0  0  0  0  0  0  0  0  0  0  0 
    9.4913   -0.4835    4.7773 C   0  0  0  0  0  0  0  0  0  0  0  0 
   10.5496   -1.1732    4.6958 N   0  0  0  0  0  0  0  0  0  0  0  0 
    9.3992    0.5672    3.8975 O   0  0  0  0  0  0  0  0  0  0  0  0 
   11.4489   -4.7099    5.3116 O   0  0  0  0  0  0  0  0  0  0  0  0 
    2.1577   -2.9367    3.5657 H   0  0  0  0  0  0  0  0  0  0  0  0 
    1.2181   -1.4416    3.6941 H   0  0  0  0  0  0  0  0  0  0  0  0 
    2.8979   -1.4747    4.2350 H   0  0  0  0  0  0  0  0  0  0  0  0 
   12.9544   -4.0083    6.5992 H   0  0  0  0  0  0  0  0  0  0  0  0 
   13.5154   -4.6496    5.0316 H   0  0  0  0  0  0  0  0  0  0  0  0 
   12.8818   -5.7581    6.2803 H   0  0  0  0  0  0  0  0  0  0  0  0 
    2.7295   -0.3412    2.0047 H   0  0  0  0  0  0  0  0  0  0  0  0 
    1.8633   -1.7162    1.3462 H   0  0  0  0  0  0  0  0  0  0  0  0 
    4.0978   -1.7511    0.5086 H   0  0  0  0  0  0  0  0  0  0  0  0 
    3.8889   -3.1462    1.5483 H   0  0  0  0  0  0  0  0  0  0  0  0 
    5.1429   -0.6104    2.6841 H   0  0  0  0  0  0  0  0  0  0  0  0 
    6.0997   -1.6357    1.6327 H   0  0  0  0  0  0  0  0  0  0  0  0 
    5.6872   -3.6020    3.1174 H   0  0  0  0  0  0  0  0  0  0  0  0 
    4.8313   -2.5814    4.2566 H   0  0  0  0  0  0  0  0  0  0  0  0 
    7.7615   -2.2144    3.4209 H   0  0  0  0  0  0  0  0  0  0  0  0 
    7.2236   -3.0381    4.8776 H   0  0  0  0  0  0  0  0  0  0  0  0 
    6.1501   -0.9065    5.6827 H   0  0  0  0  0  0  0  0  0  0  0  0 
    6.7412   -0.0744    4.2583 H   0  0  0  0  0  0  0  0  0  0  0  0 
    8.4631   -1.4166    6.4259 H   0  0  0  0  0  0  0  0  0  0  0  0 
    8.1905    0.3094    6.2702 H   0  0  0  0  0  0  0  0  0  0  0  0 
   11.6582   -2.1209    6.1620 H   0  0  0  0  0  0  0  0  0  0  0  0 
    9.9730   -2.6556    6.1617 H   0  0  0  0  0  0  0  0  0  0  0  0 
   11.9988   -3.2386    3.9382 H   0  0  0  0  0  0  0  0  0  0  0  0 
   10.3012   -3.7535    3.9526 H   0  0  0  0  0  0  0  0  0  0  0  0 
    8.5874    1.0640    4.0808 H   0  0  0  0  0  0  0  0  0  0  0  0 
  1 16  1  0  0  0  0 
  1 17  1  0  0  0  0 
  1 18  1  0  0  0  0 
  2 21  1  0  0  0  0 
  2 19  1  0  0  0  0 
  3  1  1  0  0  0  0 
  4  3  1  0  0  0  0 
  4  5  1  0  0  0  0 
  5 26  1  0  0  0  0 
  5  6  1  0  0  0  0 
  6  7  1  0  0  0  0 
  6 29  1  0  0  0  0 
  7 31  1  0  0  0  0 
  7  8  1  0  0  0  0 
  8 32  1  0  0  0  0 
  8  9  1  0  0  0  0 
  9 35  1  0  0  0  0 
  9 34  1  0  0  0  0 
 10 37  1  0  0  0  0 
 10 36  1  0  0  0  0 
 11 15  1  0  0  0  0 
 11 10  1  0  0  0  0 
 12  9  1  0  0  0  0 
 13 12  2  0  0  0  0 
 13 10  1  0  0  0  0 
 14 40  1  0  0  0  0 
 14 12  1  0  0  0  0 
 15  2  1  0  0  0  0 
 20  2  1  0  0  0  0 
 22  3  1  0  0  0  0 
 23  3  1  0  0  0  0 
 24  4  1  0  0  0  0 
 25  4  1  0  0  0  0 
 27  5  1  0  0  0  0 
 28  6  1  0  0  0  0 
 30  7  1  0  0  0  0 
 33  8  1  0  0  0  0 
 38 11  1  0  0  0  0 
 39 11  1  0  0  0  0 
M  END 
>  <HBA> 
3 
 
>  <HBD> 
1 
 
>  <TPSA> 
38.33 
 
>  <cid> 
58980 
 
>  <dipole> 
3.01 
 
>  <excitation_energy_1> 
5.518 
 
>  <excitation_energy_2> 
5.717 
 
>  <excitation_energy_3> 
5.958 
 
>  <excitation_energy_4> 
6.206 
 
>  <homo_energy> 
-6.397 
 
>  <homo_lumo_gap> 
7.053 
 
>  <logP> 
2.89 
 
>  <lumo_energy> 
0.656 
 
>  <melting_point> 
9.07 
 
>  <molecular_refractivity> 
63.88 
 
>  <oscillator_strength_1> 
0.0001 
 
>  <oscillator_strength_2> 
0.0254 
 
>  <oscillator_strength_3> 
0.0017 
 
>  <oscillator_strength_4> 
0.0039 
 
>  <open_babel_can_smiles> 
CCCCCCCC/C(=N\CCOC)/O 
 
>  <mulliken_charges> 
40 
1   -0.440801 
2   -0.197545 
3   -0.248784 
4   -0.255641 
5   -0.257619 
6   -0.263034 
7   -0.264481 
8   -0.265871 
9   -0.375044 
10   -0.168245 
11   -0.019603 
12   0.49991 
13   -0.423117 
14   -0.587415 
15   -0.462382 
16   0.142142 
17   0.141636 
18   0.143774 
19   0.13106 
20   0.132006 
21   0.155758 
22   0.128875 
23   0.132113 
24   0.13133 
25   0.129152 
26   0.127601 
27   0.134622 
28   0.134302 
29   0.136316 
30   0.152013 
31   0.135918 
32   0.14248 
33   0.127237 
34   0.165003 
35   0.153549 
36   0.145765 
37   0.125299 
38   0.134726 
39   0.142783 
40   0.404211 
 
>  <lowdin_charges> 
40 
1   -0.446888 
2   -0.281312 
3   -0.271029 
4   -0.274274 
5   -0.279554 
6   -0.277869 
7   -0.28184 
8   -0.276797 
9   -0.31514 
10   -0.216821 
11   -0.139163 
12   0.127397 
13   -0.204359 
14   -0.374963 
15   -0.273175 
16   0.144682 
17   0.148897 
18   0.146231 
19   0.130989 
20   0.133596 
21   0.153445 
22   0.135254 
23   0.142844 
24   0.143042 
25   0.136802 
26   0.135371 
27   0.144127 
28   0.142684 
29   0.141769 
30   0.14863 
31   0.145725 
32   0.147697 
33   0.135615 
34   0.163496 
35   0.157205 
36   0.146621 
37   0.12691 
38   0.136715 
39   0.146342 
40   0.351097 
 
$$$$ 
 
