PCCDB-ID:  67141 
public computational chemistry database (PCCDB) project, http://pccdb.org 
 
 15 15  0  0  0  0  0  0  0  0999 V2000 
   -1.4442   -0.0834    0.0331 C   0  0  0  0  0  0  0  0  0  0  0  0 
   -0.8245    1.1503    0.2394 C   0  0  0  0  0  0  0  0  0  0  0  0 
   -0.6668   -1.2121   -0.2389 C   0  0  0  0  0  0  0  0  0  0  0  0 
    0.5641    1.2533    0.1938 C   0  0  0  0  0  0  0  0  0  0  0  0 
    0.7191   -1.1096   -0.3071 C   0  0  0  0  0  0  0  0  0  0  0  0 
    1.3575    0.1235   -0.0798 C   0  0  0  0  0  0  0  0  0  0  0  0 
    2.8360    0.2017   -0.1693 C   0  0  0  0  0  0  0  0  0  0  0  0 
    3.7414   -0.6773   -1.2314 S   0  0  0  0  0  0  0  0  0  0  0  0 
    3.6948    1.3148    0.9104 S   0  0  0  0  0  0  0  0  0  0  0  0 
   -2.5266   -0.1641    0.0790 H   0  0  0  0  0  0  0  0  0  0  0  0 
   -1.4223    2.0369    0.4310 H   0  0  0  0  0  0  0  0  0  0  0  0 
   -1.1420   -2.1758   -0.3990 H   0  0  0  0  0  0  0  0  0  0  0  0 
    1.0300    2.2249    0.3260 H   0  0  0  0  0  0  0  0  0  0  0  0 
    1.3267   -1.9810   -0.5255 H   0  0  0  0  0  0  0  0  0  0  0  0 
    2.6771    1.6343    1.7426 H   0  0  0  0  0  0  0  0  0  0  0  0 
  1 10  1  0  0  0  0 
  1  2  2  0  0  0  0 
  2 11  1  0  0  0  0 
  3  1  1  0  0  0  0 
  4  2  1  0  0  0  0 
  4 13  1  0  0  0  0 
  5  3  2  0  0  0  0 
  5  6  1  0  0  0  0 
  6  4  2  0  0  0  0 
  7  6  1  0  0  0  0 
  7  9  1  0  0  0  0 
  8  7  2  0  0  0  0 
  9 15  1  0  0  0  0 
 12  3  1  0  0  0  0 
 14  5  1  0  0  0  0 
M  END 
>  <HBA> 
2 
 
>  <HBD> 
1 
 
>  <TPSA> 
70.89 
 
>  <cid> 
67141 
 
>  <dipole> 
4.27 
 
>  <excitation_energy_1> 
2.394 
 
>  <excitation_energy_2> 
3.995 
 
>  <excitation_energy_3> 
4.157 
 
>  <excitation_energy_4> 
4.252 
 
>  <homo_energy> 
-6.093 
 
>  <homo_lumo_gap> 
3.633 
 
>  <logP> 
2.292 
 
>  <lumo_energy> 
-2.46 
 
>  <melting_point> 
57.77 
 
>  <molecular_refractivity> 
47.13 
 
>  <oscillator_strength_1> 
0.0024 
 
>  <oscillator_strength_2> 
0.1398 
 
>  <oscillator_strength_3> 
0.0184 
 
>  <oscillator_strength_4> 
0.186 
 
>  <open_babel_can_smiles> 
SC(=S)c1ccccc1 
 
>  <mulliken_charges> 
15 
1   -0.118941 
2   -0.128762 
3   -0.1315 
4   -0.183848 
5   -0.149889 
6   0.159235 
7   -0.258682 
8   -0.106553 
9   0.077601 
10   0.143325 
11   0.142754 
12   0.144955 
13   0.147977 
14   0.16872 
15   0.093608 
 
>  <lowdin_charges> 
15 
1   -0.135365 
2   -0.153262 
3   -0.150735 
4   -0.156048 
5   -0.129519 
6   -0.024458 
7   -0.196823 
8   -0.074081 
9   0.064647 
10   0.162372 
11   0.164964 
12   0.165416 
13   0.166108 
14   0.180259 
15   0.116526 
 
$$$$ 
 
