PCCDB-ID:  66119 
public computational chemistry database (PCCDB) project, http://pccdb.org 
 
 14 14  0  0  1  0  0  0  0  0999 V2000 
    1.1261   -0.0691    0.1888 C   0  0  0  0  0  0  0  0  0  0  0  0 
    3.0480    1.0352   -1.1502 C   0  0  0  0  0  0  0  0  0  0  0  0 
    4.1371   -0.9483   -1.5518 C   0  0  0  0  0  0  0  0  0  0  0  0 
    2.6009   -0.0550   -0.1657 C   0  0  2  0  0  0  0  0  0  0  0  0 
    4.1348    0.4412   -1.8593 O   0  0  0  0  0  0  0  0  0  0  0  0 
    2.9331   -1.2451   -0.8897 O   0  0  0  0  0  0  0  0  0  0  0  0 
    0.8522    0.8446    0.7279 H   0  0  0  0  0  0  0  0  0  0  0  0 
    0.8930   -0.9264    0.8275 H   0  0  0  0  0  0  0  0  0  0  0  0 
    0.5171   -0.1380   -0.7186 H   0  0  0  0  0  0  0  0  0  0  0  0 
    3.3931    1.9482   -0.6526 H   0  0  0  0  0  0  0  0  0  0  0  0 
    2.2380    1.2924   -1.8483 H   0  0  0  0  0  0  0  0  0  0  0  0 
    5.0090   -1.1721   -0.9128 H   0  0  0  0  0  0  0  0  0  0  0  0 
    4.1836   -1.5423   -2.4713 H   0  0  0  0  0  0  0  0  0  0  0  0 
    3.2159   -0.0016    0.7489 H   0  0  0  0  0  0  0  0  0  0  0  0 
  1  7  1  0  0  0  0 
  1  8  1  0  0  0  0 
  2 10  1  0  0  0  0 
  2  4  1  0  0  0  0 
  3 12  1  0  0  0  0 
  3  6  1  0  0  0  0 
  4  1  1  0  0  0  0 
  4 14  1  1  0  0  0 
  5  3  1  0  0  0  0 
  5  2  1  0  0  0  0 
  6  4  1  0  0  0  0 
  9  1  1  0  0  0  0 
 11  2  1  0  0  0  0 
 13  3  1  0  0  0  0 
M  END 
>  <HBA> 
2 
 
>  <HBD> 
0 
 
>  <TPSA> 
18.46 
 
>  <cid> 
66119 
 
>  <dipole> 
1.44 
 
>  <excitation_energy_1> 
6.481 
 
>  <excitation_energy_2> 
6.844 
 
>  <excitation_energy_3> 
6.998 
 
>  <excitation_energy_4> 
7.052 
 
>  <homo_energy> 
-6.811 
 
>  <homo_lumo_gap> 
9.227 
 
>  <logP> 
0.379 
 
>  <lumo_energy> 
2.416 
 
>  <melting_point> 
-20.56 
 
>  <molecular_refractivity> 
21.4 
 
>  <oscillator_strength_1> 
0.0218 
 
>  <oscillator_strength_2> 
0.0026 
 
>  <oscillator_strength_3> 
0.008 
 
>  <oscillator_strength_4> 
0.0023 
 
>  <open_babel_can_smiles> 
C[C@@H]1COCO1 
 
>  <mulliken_charges> 
14 
1   -0.463415 
2   -0.020025 
3   0.20778 
4   0.113912 
5   -0.498142 
6   -0.484807 
7   0.149131 
8   0.165716 
9   0.160168 
10   0.140907 
11   0.134316 
12   0.121682 
13   0.145867 
14   0.126911 
 
>  <lowdin_charges> 
14 
1   -0.447374 
2   -0.145782 
3   -0.008759 
4   -0.008424 
5   -0.286836 
6   -0.266596 
7   0.157533 
8   0.164316 
9   0.15944 
10   0.147229 
11   0.138128 
12   0.121151 
13   0.145187 
14   0.130788 
 
$$$$ 
 
