PCCDB-ID:  13696 
public computational chemistry database (PCCDB) project, http://pccdb.org 
 
 27 28  0  0  0  0  0  0  0  0999 V2000 
   -1.6174   -1.6175    1.4065 C   0  0  0  0  0  0  0  0  0  0  0  0 
    5.4005   -3.5285    1.6042 C   0  0  0  0  0  0  0  0  0  0  0  0 
   -1.2597   -1.6675    0.0596 C   0  0  0  0  0  0  0  0  0  0  0  0 
   -0.6599   -1.2648    2.3601 C   0  0  0  0  0  0  0  0  0  0  0  0 
    4.8112   -3.6966    0.3494 C   0  0  0  0  0  0  0  0  0  0  0  0 
    5.0399   -2.4362    2.3933 C   0  0  0  0  0  0  0  0  0  0  0  0 
    0.0476   -1.3661   -0.3262 C   0  0  0  0  0  0  0  0  0  0  0  0 
    0.6459   -0.9675    1.9724 C   0  0  0  0  0  0  0  0  0  0  0  0 
    3.8688   -2.7774   -0.1098 C   0  0  0  0  0  0  0  0  0  0  0  0 
    4.0938   -1.5183    1.9333 C   0  0  0  0  0  0  0  0  0  0  0  0 
    2.8951    0.7222    0.4848 C   0  0  0  0  0  0  0  0  0  0  0  0 
    1.0163   -1.0148    0.6217 C   0  0  0  0  0  0  0  0  0  0  0  0 
    3.4923   -1.6811    0.6777 C   0  0  0  0  0  0  0  0  0  0  0  0 
    2.4322   -0.7003    0.1628 C   0  0  0  0  0  0  0  0  0  0  0  0 
    2.3898    1.4678    1.2916 O   0  0  0  0  0  0  0  0  0  0  0  0 
   -2.6338   -1.8507    1.7122 H   0  0  0  0  0  0  0  0  0  0  0  0 
    6.1374   -4.2424    1.9621 H   0  0  0  0  0  0  0  0  0  0  0  0 
   -1.9950   -1.9400   -0.6930 H   0  0  0  0  0  0  0  0  0  0  0  0 
   -0.9303   -1.2195    3.4118 H   0  0  0  0  0  0  0  0  0  0  0  0 
    5.0868   -4.5430   -0.2742 H   0  0  0  0  0  0  0  0  0  0  0  0 
    5.4968   -2.2927    3.3688 H   0  0  0  0  0  0  0  0  0  0  0  0 
    0.3176   -1.4039   -1.3796 H   0  0  0  0  0  0  0  0  0  0  0  0 
    1.3766   -0.6923    2.7250 H   0  0  0  0  0  0  0  0  0  0  0  0 
    3.4126   -2.9155   -1.0874 H   0  0  0  0  0  0  0  0  0  0  0  0 
    3.8300   -0.6668    2.5550 H   0  0  0  0  0  0  0  0  0  0  0  0 
    3.8005    1.0290   -0.0857 H   0  0  0  0  0  0  0  0  0  0  0  0 
    2.4555   -0.7671   -0.9342 H   0  0  0  0  0  0  0  0  0  0  0  0 
  1 16  1  0  0  0  0 
  1  4  2  0  0  0  0 
  2 17  1  0  0  0  0 
  2  6  2  0  0  0  0 
  3  1  1  0  0  0  0 
  4 19  1  0  0  0  0 
  5  2  1  0  0  0  0 
  6 21  1  0  0  0  0 
  7  3  2  0  0  0  0 
  7 12  1  0  0  0  0 
  8  4  1  0  0  0  0 
  8 23  1  0  0  0  0 
  9  5  2  0  0  0  0 
  9 13  1  0  0  0  0 
 10  6  1  0  0  0  0 
 10 25  1  0  0  0  0 
 11 15  2  0  0  0  0 
 12  8  2  0  0  0  0 
 13 10  2  0  0  0  0 
 14 11  1  0  0  0  0 
 14 12  1  0  0  0  0 
 14 13  1  0  0  0  0 
 18  3  1  0  0  0  0 
 20  5  1  0  0  0  0 
 22  7  1  0  0  0  0 
 24  9  1  0  0  0  0 
 26 11  1  0  0  0  0 
 27 14  1  0  0  0  0 
M  END 
>  <HBA> 
1 
 
>  <HBD> 
0 
 
>  <TPSA> 
17.07 
 
>  <cid> 
13696 
 
>  <dipole> 
2.56 
 
>  <excitation_energy_1> 
4.185 
 
>  <excitation_energy_2> 
4.731 
 
>  <excitation_energy_3> 
5.042 
 
>  <excitation_energy_4> 
5.128 
 
>  <homo_energy> 
-6.479 
 
>  <homo_lumo_gap> 
5.638 
 
>  <logP> 
3.017 
 
>  <lumo_energy> 
-0.841 
 
>  <melting_point> 
68.6 
 
>  <molecular_refractivity> 
60.9 
 
>  <oscillator_strength_1> 
0.0031 
 
>  <oscillator_strength_2> 
0.0107 
 
>  <oscillator_strength_3> 
0.0008 
 
>  <oscillator_strength_4> 
0.0038 
 
>  <open_babel_can_smiles> 
O=CC(c1ccccc1)c1ccccc1 
 
>  <mulliken_charges> 
27 
1   -0.12737 
2   -0.126855 
3   -0.127926 
4   -0.133779 
5   -0.126476 
6   -0.12995 
7   -0.187952 
8   -0.153278 
9   -0.176641 
10   -0.184673 
11   0.25895 
12   0.204351 
13   0.163278 
14   -0.361227 
15   -0.381479 
16   0.128917 
17   0.133825 
18   0.128432 
19   0.130665 
20   0.134155 
21   0.135972 
22   0.120356 
23   0.135789 
24   0.128799 
25   0.148432 
26   0.115126 
27   0.150558 
 
>  <lowdin_charges> 
27 
1   -0.155236 
2   -0.154913 
3   -0.158418 
4   -0.151785 
5   -0.152196 
6   -0.150089 
7   -0.165916 
8   -0.151086 
9   -0.160529 
10   -0.168299 
11   0.057059 
12   0.003154 
13   -8e-06 
14   -0.155323 
15   -0.20953 
16   0.156673 
17   0.160905 
18   0.158538 
19   0.156883 
20   0.16075 
21   0.160208 
22   0.150412 
23   0.163241 
24   0.156391 
25   0.164759 
26   0.122473 
27   0.161881 
 
$$$$ 
 
