PCCDB-ID:  18216 
public computational chemistry database (PCCDB) project, http://pccdb.org 
 
 27 28  0  0  1  0  0  0  0  0999 V2000 
    1.5324   -1.1108   -1.5995 C   0  0  0  0  0  0  0  0  0  0  0  0 
    4.8610   -1.8004    0.1436 C   0  0  0  0  0  0  0  0  0  0  0  0 
    5.1704   -0.5562    0.6886 C   0  0  0  0  0  0  0  0  0  0  0  0 
    3.6812   -1.9606   -0.5849 C   0  0  0  0  0  0  0  0  0  0  0  0 
    4.2914    0.5114    0.4982 C   0  0  0  0  0  0  0  0  0  0  0  0 
   -1.0113    1.5187    1.5051 C   0  0  0  0  0  0  0  0  0  0  0  0 
   -0.0037    1.1565    2.6297 C   0  0  0  0  0  0  0  0  0  0  0  0 
    2.1572    1.5417   -0.3726 C   0  0  0  0  0  0  0  0  0  0  0  0 
    2.7879   -0.9007   -0.7828 C   0  0  0  0  0  0  0  0  0  0  0  0 
    3.1019    0.3585   -0.2254 C   0  0  0  0  0  0  0  0  0  0  0  0 
    1.0038    1.5001    0.6016 C   0  0  3  0  0  0  0  0  0  0  0  0 
   -0.2320    1.5182    0.2523 N   0  0  0  0  0  0  0  0  0  0  0  0 
    1.2670    1.4988    1.9733 N   0  0  0  0  0  0  0  0  0  0  0  0 
    1.3812   -2.1732   -1.8143 H   0  0  0  0  0  0  0  0  0  0  0  0 
    1.5933   -0.5866   -2.5632 H   0  0  0  0  0  0  0  0  0  0  0  0 
    0.6405   -0.7286   -1.0925 H   0  0  0  0  0  0  0  0  0  0  0  0 
    5.5336   -2.6432    0.2792 H   0  0  0  0  0  0  0  0  0  0  0  0 
    6.0885   -0.4121    1.2518 H   0  0  0  0  0  0  0  0  0  0  0  0 
    3.4445   -2.9321   -1.0132 H   0  0  0  0  0  0  0  0  0  0  0  0 
    4.5367    1.4889    0.9095 H   0  0  0  0  0  0  0  0  0  0  0  0 
   -1.4328    2.5217    1.6604 H   0  0  0  0  0  0  0  0  0  0  0  0 
   -1.8502    0.8182    1.4417 H   0  0  0  0  0  0  0  0  0  0  0  0 
   -0.0486    0.0867    2.8839 H   0  0  0  0  0  0  0  0  0  0  0  0 
   -0.1514    1.7352    3.5464 H   0  0  0  0  0  0  0  0  0  0  0  0 
    1.7289    1.5958   -1.3765 H   0  0  0  0  0  0  0  0  0  0  0  0 
    2.7156    2.4709   -0.2021 H   0  0  0  0  0  0  0  0  0  0  0  0 
    2.0994    1.0017    2.2712 H   0  0  0  0  0  0  0  0  0  0  0  0 
  1 16  1  0  0  0  0 
  1  9  1  0  0  0  0 
  2 17  1  0  0  0  0 
  2  3  2  0  0  0  0 
  3 18  1  0  0  0  0 
  4  2  1  0  0  0  0 
  5  3  1  0  0  0  0 
  5 20  1  0  0  0  0 
  6 21  1  0  0  0  0 
  6  7  1  0  0  0  0 
  7 23  1  0  0  0  0 
  7 24  1  0  0  0  0 
  8 10  1  0  0  0  0 
  8 26  1  0  0  0  0 
  8 11  1  0  0  0  0 
  9  4  2  0  0  0  0 
  9 10  1  0  0  0  0 
 10  5  2  0  0  0  0 
 11 13  1  0  0  0  0 
 12 11  1  0  0  0  0 
 12  6  1  0  0  0  0 
 13 27  1  0  0  0  0 
 13  7  1  0  0  0  0 
 14  1  1  0  0  0  0 
 15  1  1  0  0  0  0 
 19  4  1  0  0  0  0 
 22  6  1  0  0  0  0 
 25  8  1  0  0  0  0 
M  RAD  2  11   2  12   2 
M  END 
>  <HBA> 
2 
 
>  <HBD> 
1 
 
>  <TPSA> 
24.39 
 
>  <cid> 
18216 
 
>  <dipole> 
2.3 
 
>  <excitation_energy_1> 
4.95 
 
>  <excitation_energy_2> 
5.063 
 
>  <excitation_energy_3> 
5.193 
 
>  <excitation_energy_4> 
5.311 
 
>  <homo_energy> 
-5.84 
 
>  <homo_lumo_gap> 
5.701 
 
>  <logP> 
1.304 
 
>  <lumo_energy> 
-0.139 
 
>  <melting_point> 
77.62 
 
>  <molecular_refractivity> 
62.41 
 
>  <oscillator_strength_1> 
0.0052 
 
>  <oscillator_strength_2> 
0.0007 
 
>  <oscillator_strength_3> 
0.0086 
 
>  <oscillator_strength_4> 
0.0042 
 
>  <open_babel_can_smiles> 
Cc1ccccc1C[C]1[N]CCN1 
 
>  <mulliken_charges> 
27 
1   -0.545868 
2   -0.125787 
3   -0.129628 
4   -0.183586 
5   -0.2037 
6   -0.161577 
7   -0.148284 
8   -0.420981 
9   0.136741 
10   0.097888 
11   0.491757 
12   -0.469571 
13   -0.601496 
14   0.15052 
15   0.163339 
16   0.188928 
17   0.128933 
18   0.128816 
19   0.123849 
20   0.127256 
21   0.150019 
22   0.147183 
23   0.140285 
24   0.149605 
25   0.177539 
26   0.167133 
27   0.320689 
 
>  <lowdin_charges> 
27 
1   -0.449967 
2   -0.158703 
3   -0.161864 
4   -0.164828 
5   -0.176796 
6   -0.209798 
7   -0.209462 
8   -0.278888 
9   -0.000366 
10   -0.018122 
11   0.085576 
12   -0.247836 
13   -0.321169 
14   0.15438 
15   0.16123 
16   0.174093 
17   0.158403 
18   0.157456 
19   0.154773 
20   0.154132 
21   0.145864 
22   0.14967 
23   0.133908 
24   0.149743 
25   0.175019 
26   0.167161 
27   0.276391 
 
$$$$ 
 
