PCCDB-ID:  48806 
public computational chemistry database (PCCDB) project, http://pccdb.org 
 
 37 37  0  0  1  0  0  0  0  0999 V2000 
    0.5742    0.6617    0.3295 C   0  0  0  0  0  0  0  0  0  0  0  0 
    8.7108    0.8791    4.2809 C   0  0  0  0  0  0  0  0  0  0  0  0 
    8.2020    3.4539    0.3367 C   0  0  0  0  0  0  0  0  0  0  0  0 
    2.0997    0.6955    0.1938 C   0  0  0  0  0  0  0  0  0  0  0  0 
    7.1825    0.8635    4.1807 C   0  0  0  0  0  0  0  0  0  0  0  0 
    2.8230    0.7361    1.5463 C   0  0  0  0  0  0  0  0  0  0  0  0 
    4.3518    0.7709    1.4153 C   0  0  0  0  0  0  0  0  0  0  0  0 
    5.0557    0.8172    2.7778 C   0  0  0  0  0  0  0  0  0  0  0  0 
    7.1692   -0.2860    1.9335 C   0  0  0  0  0  0  0  0  0  0  0  0 
    7.0050    2.2242    2.0959 C   0  0  0  0  0  0  0  0  0  0  0  0 
    8.2457    0.9982    0.3355 C   0  0  0  0  0  0  0  0  0  0  0  0 
    6.6136    0.8795    2.7256 C   0  0  2  0  0  0  0  0  0  0  0  0 
    7.8944   -0.2365    0.8825 N   0  0  0  0  0  0  0  0  0  0  0  0 
    7.7931    2.1909    0.9633 N   0  0  0  0  0  0  0  0  0  0  0  0 
    6.8762   -1.5208    2.3874 O   0  0  0  0  0  0  0  0  0  0  0  0 
    6.6231    3.2676    2.6057 O   0  0  0  0  0  0  0  0  0  0  0  0 
    8.9280    1.0845   -0.6644 O   0  0  0  0  0  0  0  0  0  0  0  0 
    0.0875    0.6354   -0.6518 H   0  0  0  0  0  0  0  0  0  0  0  0 
    0.2036    1.5465    0.8616 H   0  0  0  0  0  0  0  0  0  0  0  0 
    0.2445   -0.2229    0.8883 H   0  0  0  0  0  0  0  0  0  0  0  0 
    9.0185    0.8731    5.3316 H   0  0  0  0  0  0  0  0  0  0  0  0 
    9.1316    1.7793    3.8202 H   0  0  0  0  0  0  0  0  0  0  0  0 
    9.1627    0.0067    3.7961 H   0  0  0  0  0  0  0  0  0  0  0  0 
    7.8139    4.2672    0.9463 H   0  0  0  0  0  0  0  0  0  0  0  0 
    7.8017    3.5111   -0.6783 H   0  0  0  0  0  0  0  0  0  0  0  0 
    9.2915    3.4984    0.2787 H   0  0  0  0  0  0  0  0  0  0  0  0 
    2.3956    1.5717   -0.4000 H   0  0  0  0  0  0  0  0  0  0  0  0 
    2.4379   -0.1842   -0.3714 H   0  0  0  0  0  0  0  0  0  0  0  0 
    6.7634    1.7406    4.6830 H   0  0  0  0  0  0  0  0  0  0  0  0 
    6.7857   -0.0159    4.7070 H   0  0  0  0  0  0  0  0  0  0  0  0 
    2.5270   -0.1409    2.1414 H   0  0  0  0  0  0  0  0  0  0  0  0 
    2.4867    1.6172    2.1121 H   0  0  0  0  0  0  0  0  0  0  0  0 
    4.6413    1.6507    0.8249 H   0  0  0  0  0  0  0  0  0  0  0  0 
    4.6865   -0.1085    0.8477 H   0  0  0  0  0  0  0  0  0  0  0  0 
    4.7510   -0.0537    3.3774 H   0  0  0  0  0  0  0  0  0  0  0  0 
    4.7310    1.7022    3.3347 H   0  0  0  0  0  0  0  0  0  0  0  0 
    6.3224   -1.4568    3.1820 H   0  0  0  0  0  0  0  0  0  0  0  0 
  1 19  1  0  0  0  0 
  1 20  1  0  0  0  0 
  2 21  1  0  0  0  0 
  3 24  1  0  0  0  0 
  3 14  1  0  0  0  0 
  4  1  1  0  0  0  0 
  4  6  1  0  0  0  0 
  5  2  1  0  0  0  0 
  5 29  1  0  0  0  0 
  5 30  1  0  0  0  0 
  6 32  1  0  0  0  0 
  6 31  1  0  0  0  0 
  7  6  1  0  0  0  0 
  7  8  1  0  0  0  0 
  8 36  1  0  0  0  0 
  8 35  1  0  0  0  0 
  9 15  1  0  0  0  0 
  9 12  1  0  0  0  0 
 10 16  2  0  0  0  0 
 10 12  1  0  0  0  0 
 11 13  1  0  0  0  0 
 11 14  1  0  0  0  0 
 12  8  1  1  0  0  0 
 12  5  1  0  0  0  0 
 13  9  2  0  0  0  0 
 14 10  1  0  0  0  0 
 15 37  1  0  0  0  0 
 17 11  2  0  0  0  0 
 18  1  1  0  0  0  0 
 22  2  1  0  0  0  0 
 23  2  1  0  0  0  0 
 25  3  1  0  0  0  0 
 26  3  1  0  0  0  0 
 27  4  1  0  0  0  0 
 28  4  1  0  0  0  0 
 33  7  1  0  0  0  0 
 34  7  1  0  0  0  0 
M  END 
>  <HBA> 
5 
 
>  <HBD> 
1 
 
>  <TPSA> 
66.48 
 
>  <cid> 
48806 
 
>  <dipole> 
4.94 
 
>  <excitation_energy_1> 
4.511 
 
>  <excitation_energy_2> 
4.838 
 
>  <excitation_energy_3> 
5.159 
 
>  <excitation_energy_4> 
5.275 
 
>  <homo_energy> 
-7.211 
 
>  <homo_lumo_gap> 
5.796 
 
>  <logP> 
1.938 
 
>  <lumo_energy> 
-1.415 
 
>  <melting_point> 
115.04 
 
>  <molecular_refractivity> 
71.94 
 
>  <oscillator_strength_1> 
0.0004 
 
>  <oscillator_strength_2> 
0.0004 
 
>  <oscillator_strength_3> 
0.0015 
 
>  <oscillator_strength_4> 
0.0467 
 
>  <open_babel_can_smiles> 
CCCCC[C@@]1(CC)C(=NC(=O)N(C1=O)C)O 
 
>  <mulliken_charges> 
37 
1   -0.442859 
2   -0.470661 
3   -0.323037 
4   -0.250579 
5   -0.268635 
6   -0.250096 
7   -0.281007 
8   -0.279365 
9   0.558077 
10   0.648347 
11   0.70391 
12   -0.139829 
13   -0.497477 
14   -0.516932 
15   -0.572687 
16   -0.516868 
17   -0.466209 
18   0.146832 
19   0.143675 
20   0.142079 
21   0.160871 
22   0.167775 
23   0.168883 
24   0.195899 
25   0.181244 
26   0.182797 
27   0.136505 
28   0.136839 
29   0.185153 
30   0.124363 
31   0.127649 
32   0.136656 
33   0.151964 
34   0.152583 
35   0.118781 
36   0.182357 
37   0.423004 
 
>  <lowdin_charges> 
37 
1   -0.445065 
2   -0.453106 
3   -0.349512 
4   -0.273029 
5   -0.266492 
6   -0.273906 
7   -0.285748 
8   -0.268923 
9   0.16031 
10   0.166993 
11   0.181303 
12   -0.056963 
13   -0.183888 
14   -0.089482 
15   -0.320974 
16   -0.28515 
17   -0.243475 
18   0.151861 
19   0.148104 
20   0.147262 
21   0.160678 
22   0.160468 
23   0.159938 
24   0.18098 
25   0.167681 
26   0.167891 
27   0.142637 
28   0.142698 
29   0.171079 
30   0.137789 
31   0.138007 
32   0.142661 
33   0.150791 
34   0.149522 
35   0.135116 
36   0.169952 
37   0.361992 
 
$$$$ 
 
