PCCDB-ID:  7360 
public computational chemistry database (PCCDB) project, http://pccdb.org 
 
 17 17  0  0  1  0  0  0  0  0999 V2000 
   -0.7828   -1.0374    0.3314 C   0  0  0  0  0  0  0  0  0  0  0  0 
    0.6913   -1.2183   -0.0730 C   0  0  0  0  0  0  0  0  0  0  0  0 
   -1.0402    0.4090   -0.0943 C   0  0  0  0  0  0  0  0  0  0  0  0 
    2.1928    0.6611   -1.0151 C   0  0  0  0  0  0  0  0  0  0  0  0 
    1.2887    0.1900    0.1209 C   0  0  1  0  0  0  0  0  0  0  0  0 
    2.5895    2.0067   -0.8300 O   0  0  0  0  0  0  0  0  0  0  0  0 
    0.1707    1.1047    0.2100 O   0  0  0  0  0  0  0  0  0  0  0  0 
   -0.8997   -1.1352    1.4166 H   0  0  0  0  0  0  0  0  0  0  0  0 
   -1.4547   -1.7531   -0.1527 H   0  0  0  0  0  0  0  0  0  0  0  0 
    0.7612   -1.5199   -1.1263 H   0  0  0  0  0  0  0  0  0  0  0  0 
    1.2106   -1.9743    0.5228 H   0  0  0  0  0  0  0  0  0  0  0  0 
   -1.8524    0.8981    0.4525 H   0  0  0  0  0  0  0  0  0  0  0  0 
   -1.2650    0.4679   -1.1715 H   0  0  0  0  0  0  0  0  0  0  0  0 
    1.6618    0.5262   -1.9743 H   0  0  0  0  0  0  0  0  0  0  0  0 
    3.1067    0.0568   -1.0520 H   0  0  0  0  0  0  0  0  0  0  0  0 
    1.8369    0.2761    1.0679 H   0  0  0  0  0  0  0  0  0  0  0  0 
    1.7666    2.4873   -0.6350 H   0  0  0  0  0  0  0  0  0  0  0  0 
  1  8  1  0  0  0  0 
  2  5  1  0  0  0  0 
  2  1  1  0  0  0  0 
  2 11  1  0  0  0  0 
  3  7  1  0  0  0  0 
  3  1  1  0  0  0  0 
  3 12  1  0  0  0  0 
  4  6  1  0  0  0  0 
  4  5  1  0  0  0  0 
  5  7  1  0  0  0  0 
  5 16  1  1  0  0  0 
  6 17  1  0  0  0  0 
  9  1  1  0  0  0  0 
 10  2  1  0  0  0  0 
 13  3  1  0  0  0  0 
 14  4  1  0  0  0  0 
 15  4  1  0  0  0  0 
M  END 
>  <HBA> 
2 
 
>  <HBD> 
1 
 
>  <TPSA> 
29.46 
 
>  <cid> 
7360 
 
>  <dipole> 
3.03 
 
>  <excitation_energy_1> 
6.24 
 
>  <excitation_energy_2> 
6.655 
 
>  <excitation_energy_3> 
6.739 
 
>  <excitation_energy_4> 
6.795 
 
>  <homo_energy> 
-6.67 
 
>  <homo_lumo_gap> 
8.83 
 
>  <logP> 
0.158 
 
>  <lumo_energy> 
2.161 
 
>  <melting_point> 
6.35 
 
>  <molecular_refractivity> 
26.28 
 
>  <oscillator_strength_1> 
0.0036 
 
>  <oscillator_strength_2> 
0.0003 
 
>  <oscillator_strength_3> 
0.0074 
 
>  <oscillator_strength_4> 
0.0051 
 
>  <open_babel_can_smiles> 
OC[C@@H]1CCCO1 
 
>  <mulliken_charges> 
17 
1   -0.294631 
2   -0.322432 
3   -0.018639 
4   -0.025522 
5   0.138725 
6   -0.623422 
7   -0.514275 
8   0.152619 
9   0.145261 
10   0.144913 
11   0.153385 
12   0.14791 
13   0.126794 
14   0.112232 
15   0.13832 
16   0.137745 
17   0.401017 
 
>  <lowdin_charges> 
17 
1   -0.290475 
2   -0.294618 
3   -0.130049 
4   -0.147117 
5   -0.017482 
6   -0.467495 
7   -0.296068 
8   0.149235 
9   0.15468 
10   0.146158 
11   0.158678 
12   0.150728 
13   0.126468 
14   0.123002 
15   0.147105 
16   0.142602 
17   0.344649 
 
$$$$ 
 
