PCCDB-ID:  34006 
public computational chemistry database (PCCDB) project, http://pccdb.org 
 
 22 21  0  0  1  0  0  0  0  0999 V2000 
    8.7242    0.2295    0.5146 C   0  0  0  0  0  0  0  0  0  0  0  0 
    5.0520   -1.6573    1.9977 C   0  0  0  0  0  0  0  0  0  0  0  0 
    7.7943   -0.7658    1.1902 C   0  0  0  0  0  0  0  0  0  0  0  0 
    5.9442   -0.7020    2.8003 C   0  0  1  0  0  0  0  0  0  0  0  0 
    6.5988   -1.4522    3.9762 C   0  0  0  0  0  0  0  0  0  0  0  0 
    6.1128   -1.1153    5.3978 C   0  0  0  0  0  0  0  0  0  0  0  0 
    7.4381   -2.3152    3.8112 O   0  0  0  0  0  0  0  0  0  0  0  0 
    6.4245    0.2332    5.6323 O   0  0  0  0  0  0  0  0  0  0  0  0 
    4.7276   -1.3697    5.5307 O   0  0  0  0  0  0  0  0  0  0  0  0 
    6.9173   -0.0082    2.0313 O   0  0  0  0  0  0  0  0  0  0  0  0 
    9.4166   -0.2939   -0.1542 H   0  0  0  0  0  0  0  0  0  0  0  0 
    9.3086    0.7774    1.2608 H   0  0  0  0  0  0  0  0  0  0  0  0 
    8.1531    0.9554   -0.0736 H   0  0  0  0  0  0  0  0  0  0  0  0 
    4.2305   -2.0170    2.6275 H   0  0  0  0  0  0  0  0  0  0  0  0 
    5.6139   -2.5303    1.6538 H   0  0  0  0  0  0  0  0  0  0  0  0 
    4.6298   -1.1365    1.1320 H   0  0  0  0  0  0  0  0  0  0  0  0 
    8.3592   -1.4939    1.7816 H   0  0  0  0  0  0  0  0  0  0  0  0 
    7.2173   -1.3192    0.4350 H   0  0  0  0  0  0  0  0  0  0  0  0 
    5.3278    0.1087    3.2065 H   0  0  0  0  0  0  0  0  0  0  0  0 
    6.6076   -1.7993    6.0959 H   0  0  0  0  0  0  0  0  0  0  0  0 
    6.2575    0.4172    6.5718 H   0  0  0  0  0  0  0  0  0  0  0  0 
    4.2646   -0.6559    5.0593 H   0  0  0  0  0  0  0  0  0  0  0  0 
  1  3  1  0  0  0  0 
  1 12  1  0  0  0  0 
  2 14  1  0  0  0  0 
  2  4  1  0  0  0  0 
  3 17  1  0  0  0  0 
  3 10  1  0  0  0  0 
  4 19  1  1  0  0  0 
  4  5  1  0  0  0  0 
  5  6  1  0  0  0  0 
  6  9  1  0  0  0  0 
  6  8  1  0  0  0  0 
  6 20  1  0  0  0  0 
  7  5  2  0  0  0  0 
  8 21  1  0  0  0  0 
 10  4  1  0  0  0  0 
 11  1  1  0  0  0  0 
 13  1  1  0  0  0  0 
 15  2  1  0  0  0  0 
 16  2  1  0  0  0  0 
 18  3  1  0  0  0  0 
 22  9  1  0  0  0  0 
M  END 
>  <HBA> 
4 
 
>  <HBD> 
2 
 
>  <TPSA> 
66.76 
 
>  <cid> 
34006 
 
>  <dipole> 
2.05 
 
>  <excitation_energy_1> 
3.709 
 
>  <excitation_energy_2> 
5.307 
 
>  <excitation_energy_3> 
5.528 
 
>  <excitation_energy_4> 
6.031 
 
>  <homo_energy> 
-6.24 
 
>  <homo_lumo_gap> 
5.279 
 
>  <logP> 
-0.709 
 
>  <lumo_energy> 
-0.961 
 
>  <melting_point> 
23.11 
 
>  <molecular_refractivity> 
34.56 
 
>  <oscillator_strength_1> 
0.0009 
 
>  <oscillator_strength_2> 
0.0081 
 
>  <oscillator_strength_3> 
0.0075 
 
>  <oscillator_strength_4> 
0.0046 
 
>  <open_babel_can_smiles> 
CCO[C@H](C(=O)C(O)O)C 
 
>  <mulliken_charges> 
22 
1   -0.452553 
2   -0.481149 
3   -0.029223 
4   0.092931 
5   0.464648 
6   0.209244 
7   -0.44493 
8   -0.598659 
9   -0.601686 
10   -0.483095 
11   0.142359 
12   0.159089 
13   0.152774 
14   0.154091 
15   0.174122 
16   0.162452 
17   0.162109 
18   0.121244 
19   0.133415 
20   0.159824 
21   0.405725 
22   0.397269 
 
>  <lowdin_charges> 
22 
1   -0.451615 
2   -0.460623 
3   -0.136419 
4   -0.023402 
5   0.137095 
6   0.062 
7   -0.211515 
8   -0.437158 
9   -0.446222 
10   -0.264291 
11   0.154849 
12   0.158466 
13   0.155171 
14   0.160876 
15   0.164962 
16   0.161775 
17   0.149291 
18   0.129843 
19   0.147013 
20   0.151995 
21   0.352616 
22   0.345292 
 
$$$$ 
 
