PCCDB-ID:  41116 
public computational chemistry database (PCCDB) project, http://pccdb.org 
 
 32 33  0  0  0  0  0  0  0  0999 V2000 
    2.1472    0.5707   -0.9287 C   0  0  0  0  0  0  0  0  0  0  0  0 
    1.9131    3.2601    4.3812 C   0  0  0  0  0  0  0  0  0  0  0  0 
    2.7363    4.9740    2.9112 C   0  0  0  0  0  0  0  0  0  0  0  0 
    3.8608   -1.7469    1.6670 C   0  0  0  0  0  0  0  0  0  0  0  0 
    4.4873   -1.7329    2.9001 C   0  0  0  0  0  0  0  0  0  0  0  0 
    3.5174    0.6698    1.7147 C   0  0  0  0  0  0  0  0  0  0  0  0 
    5.0963    1.1978    4.9520 C   0  0  0  0  0  0  0  0  0  0  0  0 
    4.2398    3.2543    3.6809 C   0  0  0  0  0  0  0  0  0  0  0  0 
    2.6990   -0.6827   -0.2628 C   0  0  0  0  0  0  0  0  0  0  0  0 
    3.3705   -0.5588    1.0648 C   0  0  0  0  0  0  0  0  0  0  0  0 
    4.4738    1.7853    3.8816 C   0  0  0  0  0  0  0  0  0  0  0  0 
    4.1580    0.7170    2.9605 C   0  0  0  0  0  0  0  0  0  0  0  0 
    4.6307   -0.4931    3.5394 C   0  0  0  0  0  0  0  0  0  0  0  0 
    5.1974   -0.1695    4.7506 N   0  0  0  0  0  0  0  0  0  0  0  0 
    2.8565    3.5803    3.3171 N   0  0  0  0  0  0  0  0  0  0  0  0 
    2.5885   -1.7690   -0.8164 O   0  0  0  0  0  0  0  0  0  0  0  0 
    1.3929    1.0553   -0.2977 H   0  0  0  0  0  0  0  0  0  0  0  0 
    1.6944    0.2868   -1.8804 H   0  0  0  0  0  0  0  0  0  0  0  0 
    2.9409    1.3052   -1.1095 H   0  0  0  0  0  0  0  0  0  0  0  0 
    0.8925    3.4566    4.0357 H   0  0  0  0  0  0  0  0  0  0  0  0 
    2.0840    3.8550    5.3011 H   0  0  0  0  0  0  0  0  0  0  0  0 
    1.9910    2.2011    4.6407 H   0  0  0  0  0  0  0  0  0  0  0  0 
    1.7110    5.1736    2.5816 H   0  0  0  0  0  0  0  0  0  0  0  0 
    3.4104    5.1772    2.0718 H   0  0  0  0  0  0  0  0  0  0  0  0 
    2.9768    5.6884    3.7241 H   0  0  0  0  0  0  0  0  0  0  0  0 
    3.7224   -2.6764    1.1255 H   0  0  0  0  0  0  0  0  0  0  0  0 
    4.8545   -2.6496    3.3544 H   0  0  0  0  0  0  0  0  0  0  0  0 
    3.1281    1.5875    1.2883 H   0  0  0  0  0  0  0  0  0  0  0  0 
    5.4902    1.6494    5.8526 H   0  0  0  0  0  0  0  0  0  0  0  0 
    4.8742    3.6164    2.8598 H   0  0  0  0  0  0  0  0  0  0  0  0 
    4.5658    3.8020    4.5897 H   0  0  0  0  0  0  0  0  0  0  0  0 
    5.6195   -0.8226    5.3920 H   0  0  0  0  0  0  0  0  0  0  0  0 
  1 17  1  0  0  0  0 
  1  9  1  0  0  0  0 
  2 22  1  0  0  0  0 
  2 21  1  0  0  0  0 
  3 15  1  0  0  0  0 
  3 25  1  0  0  0  0 
  4  5  1  0  0  0  0 
  5 27  1  0  0  0  0 
  5 13  2  0  0  0  0 
  6 12  2  0  0  0  0 
  7 29  1  0  0  0  0 
  8 11  1  0  0  0  0 
  8 31  1  0  0  0  0 
  9 10  1  0  0  0  0 
 10  4  2  0  0  0  0 
 10  6  1  0  0  0  0 
 11  7  2  0  0  0  0 
 12 13  1  0  0  0  0 
 12 11  1  0  0  0  0 
 13 14  1  0  0  0  0 
 14  7  1  0  0  0  0 
 14 32  1  0  0  0  0 
 15  8  1  0  0  0  0 
 15  2  1  0  0  0  0 
 16  9  2  0  0  0  0 
 18  1  1  0  0  0  0 
 19  1  1  0  0  0  0 
 20  2  1  0  0  0  0 
 23  3  1  0  0  0  0 
 24  3  1  0  0  0  0 
 26  4  1  0  0  0  0 
 28  6  1  0  0  0  0 
 30  8  1  0  0  0  0 
M  END 
>  <HBA> 
2 
 
>  <HBD> 
1 
 
>  <TPSA> 
36.1 
 
>  <cid> 
41116 
 
>  <dipole> 
5.44 
 
>  <excitation_energy_1> 
3.86 
 
>  <excitation_energy_2> 
4.012 
 
>  <excitation_energy_3> 
4.171 
 
>  <excitation_energy_4> 
4.509 
 
>  <homo_energy> 
-5.671 
 
>  <homo_lumo_gap> 
4.738 
 
>  <logP> 
2.432 
 
>  <lumo_energy> 
-0.933 
 
>  <melting_point> 
136.97 
 
>  <molecular_refractivity> 
65.97 
 
>  <oscillator_strength_1> 
0.0001 
 
>  <oscillator_strength_2> 
0.0304 
 
>  <oscillator_strength_3> 
0.0007 
 
>  <oscillator_strength_4> 
0.064 
 
>  <open_babel_can_smiles> 
CN(Cc1c[nH]c2c1cc(cc2)C(=O)C)C 
 
>  <mulliken_charges> 
32 
1   -0.539204 
2   -0.301257 
3   -0.292505 
4   -0.186989 
5   -0.160289 
6   -0.266176 
7   -0.006233 
8   -0.196379 
9   0.40385 
10   0.070297 
11   0.070388 
12   0.079035 
13   0.325298 
14   -0.693349 
15   -0.364386 
16   -0.467803 
17   0.169831 
18   0.17472 
19   0.16632 
20   0.148122 
21   0.112604 
22   0.16536 
23   0.15055 
24   0.14803 
25   0.117124 
26   0.157752 
27   0.126809 
28   0.147923 
29   0.151763 
30   0.148156 
31   0.110488 
32   0.33015 
 
>  <lowdin_charges> 
32 
1   -0.478201 
2   -0.357937 
3   -0.357632 
4   -0.138042 
5   -0.188345 
6   -0.14631 
7   -0.133329 
8   -0.191926 
9   0.160804 
10   -0.0693 
11   -0.06271 
12   -0.035178 
13   0.04303 
14   -0.199353 
15   -0.182816 
16   -0.257747 
17   0.170051 
18   0.17127 
19   0.168008 
20   0.149189 
21   0.118409 
22   0.157594 
23   0.150114 
24   0.149618 
25   0.121021 
26   0.175462 
27   0.158505 
28   0.170493 
29   0.166561 
30   0.152218 
31   0.12169 
32   0.29479 
 
$$$$ 
 
