PCCDB-ID:  71073 
public computational chemistry database (PCCDB) project, http://pccdb.org 
 
 14 15  0  0  0  0  0  0  0  0999 V2000 
    2.1403    0.7075    0.0006 C   0  0  0  0  0  0  0  0  0  0  0  0 
    2.1173   -0.7046    0.0006 C   0  0  0  0  0  0  0  0  0  0  0  0 
    0.9641    1.4455    0.0010 C   0  0  0  0  0  0  0  0  0  0  0  0 
    0.9245   -1.4198    0.0005 C   0  0  0  0  0  0  0  0  0  0  0  0 
   -1.6499    1.0515   -0.0000 C   0  0  0  0  0  0  0  0  0  0  0  0 
   -0.2499    0.7407    0.0012 C   0  0  0  0  0  0  0  0  0  0  0  0 
   -0.2465   -0.6604    0.0006 C   0  0  0  0  0  0  0  0  0  0  0  0 
   -2.3966   -0.0190   -0.0009 N   0  0  0  0  0  0  0  0  0  0  0  0 
   -1.5194   -1.1260   -0.0004 O   0  0  0  0  0  0  0  0  0  0  0  0 
    3.0974    1.2207   -0.0005 H   0  0  0  0  0  0  0  0  0  0  0  0 
    3.0585   -1.2473    0.0013 H   0  0  0  0  0  0  0  0  0  0  0  0 
    0.9837    2.5313    0.0017 H   0  0  0  0  0  0  0  0  0  0  0  0 
    0.8979   -2.5039   -0.0003 H   0  0  0  0  0  0  0  0  0  0  0  0 
   -2.1333    2.0209   -0.0003 H   0  0  0  0  0  0  0  0  0  0  0  0 
  1  3  2  0  0  0  0 
  2  1  1  0  0  0  0 
  2 11  1  0  0  0  0 
  3  6  1  0  0  0  0 
  3 12  1  0  0  0  0 
  4  2  2  0  0  0  0 
  4  7  1  0  0  0  0 
  5  6  1  0  0  0  0 
  7  6  2  0  0  0  0 
  8  9  1  0  0  0  0 
  8  5  2  0  0  0  0 
  9  7  1  0  0  0  0 
 10  1  1  0  0  0  0 
 13  4  1  0  0  0  0 
 14  5  1  0  0  0  0 
M  END 
>  <HBA> 
2 
 
>  <HBD> 
0 
 
>  <TPSA> 
26.03 
 
>  <cid> 
71073 
 
>  <dipole> 
3.18 
 
>  <excitation_energy_1> 
4.834 
 
>  <excitation_energy_2> 
5.299 
 
>  <excitation_energy_3> 
6.026 
 
>  <excitation_energy_4> 
6.222 
 
>  <homo_energy> 
-6.762 
 
>  <homo_lumo_gap> 
5.516 
 
>  <logP> 
1.828 
 
>  <lumo_energy> 
-1.246 
 
>  <melting_point> 
62.38 
 
>  <molecular_refractivity> 
34.01 
 
>  <oscillator_strength_1> 
0.0505 
 
>  <oscillator_strength_2> 
0.1276 
 
>  <oscillator_strength_3> 
0.0045 
 
>  <oscillator_strength_4> 
0.0008 
 
>  <open_babel_can_smiles> 
c1ccc2c(c1)onc2 
 
>  <mulliken_charges> 
14 
1   -0.137875 
2   -0.140244 
3   -0.190202 
4   -0.156964 
5   0.016731 
6   0.053258 
7   0.368437 
8   -0.146241 
9   -0.419097 
10   0.137996 
11   0.142472 
12   0.144351 
13   0.155362 
14   0.172017 
 
>  <lowdin_charges> 
14 
1   -0.166022 
2   -0.140607 
3   -0.141129 
4   -0.169912 
5   -0.12476 
6   -0.057864 
7   0.089645 
8   -0.046082 
9   -0.088334 
10   0.162936 
11   0.164968 
12   0.163746 
13   0.17299 
14   0.180426 
 
$$$$ 
 
