PCCDB-ID:  34581 
public computational chemistry database (PCCDB) project, http://pccdb.org 
 
 32 34  0  0  1  0  0  0  0  0999 V2000 
   -1.5491   -0.0527   -0.0689 C   0  0  0  0  0  0  0  0  0  0  0  0 
   -0.9492   -0.2197   -1.3189 C   0  0  0  0  0  0  0  0  0  0  0  0 
   -0.7513    0.2144    1.0437 C   0  0  0  0  0  0  0  0  0  0  0  0 
    7.6494   -0.8692   -1.7444 C   0  0  0  0  0  0  0  0  0  0  0  0 
    7.0414   -2.0967   -1.4704 C   0  0  0  0  0  0  0  0  0  0  0  0 
    0.4357   -0.1208   -1.4523 C   0  0  0  0  0  0  0  0  0  0  0  0 
    0.6343    0.3140    0.9038 C   0  0  0  0  0  0  0  0  0  0  0  0 
    6.8846    0.2938   -1.7267 C   0  0  0  0  0  0  0  0  0  0  0  0 
    5.6799   -2.1389   -1.1836 C   0  0  0  0  0  0  0  0  0  0  0  0 
    4.7230    1.5599   -1.3988 C   0  0  0  0  0  0  0  0  0  0  0  0 
    3.2051    1.3548   -1.4685 C   0  0  0  0  0  0  0  0  0  0  0  0 
    3.4110   -1.0778   -0.8809 C   0  0  0  0  0  0  0  0  0  0  0  0 
    1.2516    0.1492   -0.3429 C   0  0  0  0  0  0  0  0  0  0  0  0 
    5.5122    0.2624   -1.4392 C   0  0  0  0  0  0  0  0  0  0  0  0 
    4.8997   -0.9733   -1.1662 C   0  0  0  0  0  0  0  0  0  0  0  0 
    2.7611    0.2615   -0.4765 C   0  0  2  0  0  0  0  0  0  0  0  0 
   -2.6280   -0.1309    0.0356 H   0  0  0  0  0  0  0  0  0  0  0  0 
   -1.5611   -0.4267   -2.1932 H   0  0  0  0  0  0  0  0  0  0  0  0 
   -1.2054    0.3467    2.0225 H   0  0  0  0  0  0  0  0  0  0  0  0 
    8.7111   -0.8200   -1.9720 H   0  0  0  0  0  0  0  0  0  0  0  0 
    7.6252   -3.0135   -1.4782 H   0  0  0  0  0  0  0  0  0  0  0  0 
    0.8847   -0.2542   -2.4337 H   0  0  0  0  0  0  0  0  0  0  0  0 
    1.2486    0.5247    1.7767 H   0  0  0  0  0  0  0  0  0  0  0  0 
    7.3556    1.2517   -1.9399 H   0  0  0  0  0  0  0  0  0  0  0  0 
    5.2038   -3.0938   -0.9684 H   0  0  0  0  0  0  0  0  0  0  0  0 
    4.9667    2.0963   -0.4688 H   0  0  0  0  0  0  0  0  0  0  0  0 
    5.0521    2.2161   -2.2149 H   0  0  0  0  0  0  0  0  0  0  0  0 
    2.9147    1.0649   -2.4875 H   0  0  0  0  0  0  0  0  0  0  0  0 
    2.6900    2.2973   -1.2491 H   0  0  0  0  0  0  0  0  0  0  0  0 
    3.2348   -1.8256   -0.0973 H   0  0  0  0  0  0  0  0  0  0  0  0 
    2.8999   -1.4614   -1.7765 H   0  0  0  0  0  0  0  0  0  0  0  0 
    3.1593    0.5390    0.5105 H   0  0  0  0  0  0  0  0  0  0  0  0 
  1 17  1  0  0  0  0 
  1  3  2  0  0  0  0 
  2  1  1  0  0  0  0 
  3 19  1  0  0  0  0 
  4  8  2  0  0  0  0 
  4  5  1  0  0  0  0 
  5  9  2  0  0  0  0 
  6  2  2  0  0  0  0 
  6 13  1  0  0  0  0 
  7  3  1  0  0  0  0 
  7 23  1  0  0  0  0 
  8 14  1  0  0  0  0 
  9 15  1  0  0  0  0 
  9 25  1  0  0  0  0 
 10 26  1  0  0  0  0 
 11 10  1  0  0  0  0 
 11 29  1  0  0  0  0 
 11 16  1  0  0  0  0 
 12 16  1  0  0  0  0 
 12 30  1  0  0  0  0 
 13  7  2  0  0  0  0 
 14 10  1  0  0  0  0 
 14 15  2  0  0  0  0 
 15 12  1  0  0  0  0 
 16 13  1  0  0  0  0 
 16 32  1  1  0  0  0 
 18  2  1  0  0  0  0 
 20  4  1  0  0  0  0 
 21  5  1  0  0  0  0 
 22  6  1  0  0  0  0 
 24  8  1  0  0  0  0 
 27 10  1  0  0  0  0 
 28 11  1  0  0  0  0 
 31 12  1  0  0  0  0 
M  END 
>  <HBA> 
0 
 
>  <HBD> 
0 
 
>  <TPSA> 
0.0 
 
>  <cid> 
34581 
 
>  <dipole> 
0.35 
 
>  <excitation_energy_1> 
5.146 
 
>  <excitation_energy_2> 
5.294 
 
>  <excitation_energy_3> 
5.589 
 
>  <excitation_energy_4> 
5.708 
 
>  <homo_energy> 
-6.259 
 
>  <homo_lumo_gap> 
6.253 
 
>  <logP> 
3.959 
 
>  <lumo_energy> 
-0.005 
 
>  <melting_point> 
63.63 
 
>  <molecular_refractivity> 
68.36 
 
>  <oscillator_strength_1> 
0.0095 
 
>  <oscillator_strength_2> 
0.0029 
 
>  <oscillator_strength_3> 
0.0284 
 
>  <oscillator_strength_4> 
0.003 
 
>  <open_babel_can_smiles> 
c1ccc(cc1)[C@@H]1CCc2c(C1)cccc2 
 
>  <mulliken_charges> 
32 
1   -0.130472 
2   -0.131345 
3   -0.127754 
4   -0.129263 
5   -0.130693 
6   -0.185634 
7   -0.195494 
8   -0.188214 
9   -0.190331 
10   -0.346834 
11   -0.266634 
12   -0.343225 
13   0.18817 
14   0.119343 
15   0.123746 
16   -0.190878 
17   0.127229 
18   0.127779 
19   0.127726 
20   0.124552 
21   0.1247 
22   0.125609 
23   0.123525 
24   0.118413 
25   0.119512 
26   0.151103 
27   0.145986 
28   0.137559 
29   0.140448 
30   0.149879 
31   0.152197 
32   0.129293 
 
>  <lowdin_charges> 
32 
1   -0.15892 
2   -0.156116 
3   -0.155607 
4   -0.158269 
5   -0.16149 
6   -0.167364 
7   -0.170453 
8   -0.164933 
9   -0.164511 
10   -0.27782 
11   -0.273738 
12   -0.275092 
13   0.000986 
14   -0.016255 
15   -0.016085 
16   -0.123633 
17   0.154708 
18   0.157274 
19   0.156499 
20   0.153853 
21   0.156045 
22   0.153809 
23   0.154643 
24   0.152493 
25   0.153181 
26   0.151573 
27   0.153775 
28   0.14135 
29   0.1495 
30   0.155157 
31   0.153228 
32   0.142212 
 
$$$$ 
 
