PCCDB-ID:  12153 
public computational chemistry database (PCCDB) project, http://pccdb.org 
 
 23 23  0  0  0  0  0  0  0  0999 V2000 
    3.3098    1.7757    1.9792 C   0  0  0  0  0  0  0  0  0  0  0  0 
    2.9881    0.7732    0.8659 C   0  0  0  0  0  0  0  0  0  0  0  0 
    3.7688    4.1614   -4.7179 C   0  0  0  0  0  0  0  0  0  0  0  0 
    2.5712    3.7527   -4.1331 C   0  0  0  0  0  0  0  0  0  0  0  0 
    4.9696    3.8796   -4.0587 C   0  0  0  0  0  0  0  0  0  0  0  0 
    2.5580    3.0736   -2.9136 C   0  0  0  0  0  0  0  0  0  0  0  0 
    4.9705    3.2095   -2.8410 C   0  0  0  0  0  0  0  0  0  0  0  0 
    2.6569    1.4235   -0.4812 C   0  0  0  0  0  0  0  0  0  0  0  0 
    3.7629    2.7955   -2.2425 C   0  0  0  0  0  0  0  0  0  0  0  0 
    3.7990    2.1608   -1.0016 N   0  0  0  0  0  0  0  0  0  0  0  0 
    3.5323    1.2602    2.9200 H   0  0  0  0  0  0  0  0  0  0  0  0 
    2.4614    2.4474    2.1572 H   0  0  0  0  0  0  0  0  0  0  0  0 
    4.1718    2.3983    1.7197 H   0  0  0  0  0  0  0  0  0  0  0  0 
    2.1326    0.1518    1.1591 H   0  0  0  0  0  0  0  0  0  0  0  0 
    3.8312    0.0790    0.7305 H   0  0  0  0  0  0  0  0  0  0  0  0 
    3.7701    4.6863   -5.6686 H   0  0  0  0  0  0  0  0  0  0  0  0 
    1.6263    3.9564   -4.6314 H   0  0  0  0  0  0  0  0  0  0  0  0 
    5.9166    4.1853   -4.4967 H   0  0  0  0  0  0  0  0  0  0  0  0 
    1.6106    2.7602   -2.4885 H   0  0  0  0  0  0  0  0  0  0  0  0 
    5.9115    3.0021   -2.3345 H   0  0  0  0  0  0  0  0  0  0  0  0 
    1.8217    2.1231   -0.3444 H   0  0  0  0  0  0  0  0  0  0  0  0 
    2.3108    0.6513   -1.1912 H   0  0  0  0  0  0  0  0  0  0  0  0 
    4.6880    1.7160   -0.8050 H   0  0  0  0  0  0  0  0  0  0  0  0 
  1 12  1  0  0  0  0 
  1 11  1  0  0  0  0 
  2 14  1  0  0  0  0 
  2  1  1  0  0  0  0 
  3  4  2  0  0  0  0 
  3  5  1  0  0  0  0 
  4  6  1  0  0  0  0 
  5  7  2  0  0  0  0 
  6 19  1  0  0  0  0 
  6  9  2  0  0  0  0 
  7 20  1  0  0  0  0 
  7  9  1  0  0  0  0 
  8 21  1  0  0  0  0 
  8  2  1  0  0  0  0 
  9 10  1  0  0  0  0 
 10 23  1  0  0  0  0 
 10  8  1  0  0  0  0 
 13  1  1  0  0  0  0 
 15  2  1  0  0  0  0 
 16  3  1  0  0  0  0 
 17  4  1  0  0  0  0 
 18  5  1  0  0  0  0 
 22  8  1  0  0  0  0 
M  END 
>  <HBA> 
1 
 
>  <HBD> 
1 
 
>  <TPSA> 
12.03 
 
>  <cid> 
12153 
 
>  <dipole> 
1.83 
 
>  <excitation_energy_1> 
4.558 
 
>  <excitation_energy_2> 
4.766 
 
>  <excitation_energy_3> 
4.994 
 
>  <excitation_energy_4> 
5.175 
 
>  <homo_energy> 
-5.159 
 
>  <homo_lumo_gap> 
5.48 
 
>  <logP> 
2.582 
 
>  <lumo_energy> 
0.321 
 
>  <melting_point> 
36.54 
 
>  <molecular_refractivity> 
45.36 
 
>  <oscillator_strength_1> 
0.0349 
 
>  <oscillator_strength_2> 
0.0092 
 
>  <oscillator_strength_3> 
0.0289 
 
>  <oscillator_strength_4> 
0.0273 
 
>  <open_babel_can_smiles> 
CCCNc1ccccc1 
 
>  <mulliken_charges> 
23 
1   -0.435197 
2   -0.284749 
3   -0.138498 
4   -0.138505 
5   -0.133894 
6   -0.183362 
7   -0.189774 
8   -0.101202 
9   0.357084 
10   -0.659561 
11   0.143505 
12   0.146519 
13   0.156562 
14   0.143447 
15   0.132186 
16   0.118237 
17   0.122226 
18   0.122512 
19   0.121591 
20   0.111482 
21   0.148326 
22   0.132394 
23   0.308672 
 
>  <lowdin_charges> 
23 
1   -0.447026 
2   -0.278656 
3   -0.189194 
4   -0.146604 
5   -0.148238 
6   -0.212131 
7   -0.202308 
8   -0.197174 
9   0.061971 
10   -0.301489 
11   0.150347 
12   0.150584 
13   0.154188 
14   0.150701 
15   0.139267 
16   0.153153 
17   0.154361 
18   0.154773 
19   0.156595 
20   0.149716 
21   0.145914 
22   0.131905 
23   0.269346 
 
$$$$ 
 
