PCCDB-ID:  10462 
public computational chemistry database (PCCDB) project, http://pccdb.org 
 
 16 15  0  0  0  0  0  0  0  0999 V2000 
    1.3726   -0.5062   -0.4559 C   0  0  0  0  0  0  0  0  0  0  0  0 
    0.6997    0.7587   -1.0090 C   0  0  0  0  0  0  0  0  0  0  0  0 
    2.5940   -0.1791    0.2723 N   0  0  0  0  0  0  0  0  0  0  0  0 
   -0.5217    0.4316   -1.7373 N   0  0  0  0  0  0  0  0  0  0  0  0 
    2.4935    0.1618    1.6089 N   0  0  0  0  0  0  0  0  0  0  0  0 
   -0.4210    0.0909   -3.0740 N   0  0  0  0  0  0  0  0  0  0  0  0 
    1.3975    0.5589    2.0022 O   0  0  0  0  0  0  0  0  0  0  0  0 
    3.5247    0.0710    2.2674 O   0  0  0  0  0  0  0  0  0  0  0  0 
   -1.4520    0.1820   -3.7327 O   0  0  0  0  0  0  0  0  0  0  0  0 
    0.6749   -0.3066   -3.4670 O   0  0  0  0  0  0  0  0  0  0  0  0 
    1.6701   -1.1481   -1.2872 H   0  0  0  0  0  0  0  0  0  0  0  0 
    0.6717   -1.0523    0.1845 H   0  0  0  0  0  0  0  0  0  0  0  0 
    1.4005    1.3051   -1.6494 H   0  0  0  0  0  0  0  0  0  0  0  0 
    0.4019    1.4007   -0.1780 H   0  0  0  0  0  0  0  0  0  0  0  0 
    3.4262   -0.7408    0.1369 H   0  0  0  0  0  0  0  0  0  0  0  0 
   -1.3536    0.9939   -1.6024 H   0  0  0  0  0  0  0  0  0  0  0  0 
  1 12  1  0  0  0  0 
  1  3  1  0  0  0  0 
  2  1  1  0  0  0  0 
  2 14  1  0  0  0  0 
  3  5  1  0  0  0  0 
  4 16  1  0  0  0  0 
  4  2  1  0  0  0  0 
  5  7  2  0  0  0  0 
  5  8  2  0  0  0  0 
  6  4  1  0  0  0  0 
  9  6  2  0  0  0  0 
 10  6  2  0  0  0  0 
 11  1  1  0  0  0  0 
 13  2  1  0  0  0  0 
 15  3  1  0  0  0  0 
M  END 
>  <HBA> 
2 
 
>  <HBD> 
2 
 
>  <TPSA> 
115.7 
 
>  <cid> 
10462 
 
>  <dipole> 
0.0 
 
>  <excitation_energy_1> 
4.601 
 
>  <excitation_energy_2> 
4.604 
 
>  <excitation_energy_3> 
5.36 
 
>  <excitation_energy_4> 
5.371 
 
>  <homo_energy> 
-8.098 
 
>  <homo_lumo_gap> 
6.416 
 
>  <logP> 
0.377 
 
>  <lumo_energy> 
-1.682 
 
>  <melting_point> 
91.96 
 
>  <molecular_refractivity> 
33.54 
 
>  <oscillator_strength_1> 
0.0003 
 
>  <oscillator_strength_2> 
0.0 
 
>  <oscillator_strength_3> 
0.0 
 
>  <oscillator_strength_4> 
0.0326 
 
>  <open_babel_can_smiles> 
O=N(=O)NCCNN(=O)=O 
 
>  <mulliken_charges> 
16 
1   -0.140933 
2   -0.14112 
3   -0.39923 
4   -0.39918 
5   0.619759 
6   0.619727 
7   -0.415045 
8   -0.407066 
9   -0.407048 
10   -0.415032 
11   0.195599 
12   0.188423 
13   0.1884 
14   0.195576 
15   0.358594 
16   0.358577 
 
>  <lowdin_charges> 
16 
1   -0.215064 
2   -0.215089 
3   -0.238183 
4   -0.238185 
5   0.338801 
6   0.338771 
7   -0.270402 
8   -0.261939 
9   -0.261912 
10   -0.270391 
11   0.178924 
12   0.167809 
13   0.16778 
14   0.178902 
15   0.3001 
16   0.300076 
 
$$$$ 
 
