PCCDB-ID:  72759 
public computational chemistry database (PCCDB) project, http://pccdb.org 
 
 19 21  0  0  0  0  0  0  0  0999 V2000 
   -2.1746   -0.5678   -0.0039 C   0  0  0  0  0  0  0  0  0  0  0  0 
   -1.9511    0.8221   -0.1880 C   0  0  0  0  0  0  0  0  0  0  0  0 
   -1.1181   -1.4439    0.0991 C   0  0  0  0  0  0  0  0  0  0  0  0 
   -0.6729    1.3262   -0.2676 C   0  0  0  0  0  0  0  0  0  0  0  0 
    0.2130   -0.9618    0.0221 C   0  0  0  0  0  0  0  0  0  0  0  0 
    0.4407    0.4546   -0.1651 C   0  0  0  0  0  0  0  0  0  0  0  0 
    2.4291   -1.2967    0.0411 C   0  0  0  0  0  0  0  0  0  0  0  0 
    2.6511    0.0836   -0.1408 C   0  0  0  0  0  0  0  0  0  0  0  0 
    3.7615   -1.9687    0.1124 C   0  0  0  0  0  0  0  0  0  0  0  0 
    4.1275    0.3073   -0.1868 C   0  0  0  0  0  0  0  0  0  0  0  0 
    1.2434   -1.8518    0.1271 N   0  0  0  0  0  0  0  0  0  0  0  0 
    1.6986    0.9798   -0.2466 N   0  0  0  0  0  0  0  0  0  0  0  0 
    4.0603   -3.1158    0.2593 O   0  0  0  0  0  0  0  0  0  0  0  0 
    4.7710    1.3045   -0.3214 O   0  0  0  0  0  0  0  0  0  0  0  0 
    4.7199   -0.9548   -0.0326 O   0  0  0  0  0  0  0  0  0  0  0  0 
   -3.1934   -0.9391    0.0552 H   0  0  0  0  0  0  0  0  0  0  0  0 
   -2.8027    1.4916   -0.2664 H   0  0  0  0  0  0  0  0  0  0  0  0 
   -1.2632   -2.5102    0.2388 H   0  0  0  0  0  0  0  0  0  0  0  0 
   -0.4766    2.3840   -0.4090 H   0  0  0  0  0  0  0  0  0  0  0  0 
  1 16  1  0  0  0  0 
  1  3  2  0  0  0  0 
  2  1  1  0  0  0  0 
  3 18  1  0  0  0  0 
  4  2  2  0  0  0  0 
  4  6  1  0  0  0  0 
  5  3  1  0  0  0  0 
  5 11  2  0  0  0  0 
  6  5  1  0  0  0  0 
  7  9  1  0  0  0  0 
  7 11  1  0  0  0  0 
  8  7  2  0  0  0  0 
  9 13  2  0  0  0  0 
 10  8  1  0  0  0  0 
 10 15  1  0  0  0  0 
 12  6  2  0  0  0  0 
 12  8  1  0  0  0  0 
 14 10  2  0  0  0  0 
 15  9  1  0  0  0  0 
 17  2  1  0  0  0  0 
 19  4  1  0  0  0  0 
M  END 
>  <HBA> 
5 
 
>  <HBD> 
0 
 
>  <TPSA> 
69.15 
 
>  <cid> 
72759 
 
>  <dipole> 
6.88 
 
>  <excitation_energy_1> 
3.176 
 
>  <excitation_energy_2> 
3.616 
 
>  <excitation_energy_3> 
3.651 
 
>  <excitation_energy_4> 
3.876 
 
>  <homo_energy> 
-7.578 
 
>  <homo_lumo_gap> 
4.302 
 
>  <logP> 
0.94 
 
>  <lumo_energy> 
-3.276 
 
>  <melting_point> 
165.42 
 
>  <molecular_refractivity> 
49.28 
 
>  <oscillator_strength_1> 
0.0019 
 
>  <oscillator_strength_2> 
0.0104 
 
>  <oscillator_strength_3> 
0.0 
 
>  <oscillator_strength_4> 
0.0008 
 
>  <open_babel_can_smiles> 
O=C1OC(=O)c2c1nc1ccccc1n2 
 
>  <mulliken_charges> 
19 
1   -0.127579 
2   -0.127657 
3   -0.15513 
4   -0.155082 
5   0.273558 
6   0.273572 
7   0.219208 
8   0.219028 
9   0.617651 
10   0.617748 
11   -0.519859 
12   -0.519898 
13   -0.397488 
14   -0.39751 
15   -0.480391 
16   0.158556 
17   0.158518 
18   0.171364 
19   0.17139 
 
>  <lowdin_charges> 
19 
1   -0.131696 
2   -0.133599 
3   -0.140241 
4   -0.140365 
5   0.040716 
6   0.040944 
7   -0.014074 
8   -0.014277 
9   0.205446 
10   0.210612 
11   -0.07358 
12   -0.074086 
13   -0.158549 
14   -0.160781 
15   -0.162312 
16   0.171719 
17   0.173336 
18   0.180297 
19   0.180489 
 
$$$$ 
 
