PCCDB-ID:  53557 
public computational chemistry database (PCCDB) project, http://pccdb.org 
 
 31 31  0  0  1  0  0  0  0  0999 V2000 
   -0.4155   -0.3638    0.7579 C   0  0  0  0  0  0  0  0  0  0  0  0 
    3.1335   -1.7592    2.5980 C   0  0  0  0  0  0  0  0  0  0  0  0 
    4.3720   -0.8107    0.7699 C   0  0  0  0  0  0  0  0  0  0  0  0 
    1.9352   -1.3135    2.0341 C   0  0  0  0  0  0  0  0  0  0  0  0 
    3.1918   -0.3605    0.1957 C   0  0  0  0  0  0  0  0  0  0  0  0 
    5.6604   -2.0022    2.6105 C   0  0  0  0  0  0  0  0  0  0  0  0 
    8.2304   -2.3925    3.8918 C   0  0  0  0  0  0  0  0  0  0  0  0 
    4.3690   -1.5229    1.9837 C   0  0  0  0  0  0  0  0  0  0  0  0 
    1.9606   -0.6104    0.8234 C   0  0  0  0  0  0  0  0  0  0  0  0 
    6.3348   -1.0111    3.5649 C   0  0  0  0  0  0  0  0  0  0  0  0 
    9.4934   -2.3195    4.7410 C   0  0  2  0  0  0  0  0  0  0  0  0 
    7.4616   -1.1847    4.1259 N   0  0  0  0  0  0  0  0  0  0  0  0 
   10.4074   -3.2166    4.7770 N   0  0  0  0  0  0  0  0  0  0  0  0 
    5.6728    0.1331    3.8392 O   0  0  0  0  0  0  0  0  0  0  0  0 
    9.6350   -1.2221    5.5023 O   0  0  0  0  0  0  0  0  0  0  0  0 
   10.0383   -4.2835    3.8913 O   0  0  0  0  0  0  0  0  0  0  0  0 
    0.8620   -0.1321    0.1799 O   0  0  0  0  0  0  0  0  0  0  0  0 
   -1.1365    0.0944    0.0793 H   0  0  0  0  0  0  0  0  0  0  0  0 
   -0.4999    0.1040    1.7473 H   0  0  0  0  0  0  0  0  0  0  0  0 
   -0.6285   -1.4370    0.8442 H   0  0  0  0  0  0  0  0  0  0  0  0 
    3.0980   -2.3111    3.5347 H   0  0  0  0  0  0  0  0  0  0  0  0 
    5.3157   -0.6128    0.2669 H   0  0  0  0  0  0  0  0  0  0  0  0 
    0.9999   -1.5236    2.5397 H   0  0  0  0  0  0  0  0  0  0  0  0 
    3.1935    0.1826   -0.7439 H   0  0  0  0  0  0  0  0  0  0  0  0 
    6.3897   -2.2603    1.8326 H   0  0  0  0  0  0  0  0  0  0  0  0 
    5.4895   -2.9303    3.1720 H   0  0  0  0  0  0  0  0  0  0  0  0 
    7.6866   -3.3104    4.1590 H   0  0  0  0  0  0  0  0  0  0  0  0 
    8.5278   -2.5139    2.8397 H   0  0  0  0  0  0  0  0  0  0  0  0 
    4.8416    0.1367    3.3314 H   0  0  0  0  0  0  0  0  0  0  0  0 
    8.8296   -0.6858    5.3047 H   0  0  0  0  0  0  0  0  0  0  0  0 
   10.7916   -4.8815    4.0017 H   0  0  0  0  0  0  0  0  0  0  0  0 
  1 20  1  0  0  0  0 
  1 19  1  0  0  0  0 
  2 21  1  0  0  0  0 
  3  8  1  0  0  0  0 
  4 23  1  0  0  0  0 
  4  2  1  0  0  0  0 
  5  3  2  0  0  0  0 
  5  9  1  0  0  0  0 
  6 26  1  0  0  0  0 
  6 10  1  0  0  0  0 
  7 12  1  0  0  0  0 
  7 27  1  0  0  0  0 
  7 11  1  0  0  0  0 
  8  2  2  0  0  0  0 
  8  6  1  0  0  0  0 
  9  4  2  0  0  0  0 
 10 14  1  0  0  0  0 
 10 12  2  0  0  0  0 
 11 13  1  1  0  0  0 
 11 15  1  0  0  0  0 
 16 31  1  0  0  0  0 
 16 13  1  0  0  0  0 
 17  1  1  0  0  0  0 
 17  9  1  0  0  0  0 
 18  1  1  0  0  0  0 
 22  3  1  0  0  0  0 
 24  5  1  0  0  0  0 
 25  6  1  0  0  0  0 
 28  7  1  0  0  0  0 
 29 14  1  0  0  0  0 
 30 15  1  0  0  0  0 
M  RAD  2  11   2  13   2 
M  END 
>  <HBA> 
6 
 
>  <HBD> 
3 
 
>  <TPSA> 
87.66 
 
>  <cid> 
53557 
 
>  <dipole> 
8.76 
 
>  <excitation_energy_1> 
4.462 
 
>  <excitation_energy_2> 
4.738 
 
>  <excitation_energy_3> 
4.887 
 
>  <excitation_energy_4> 
5.109 
 
>  <homo_energy> 
-5.521 
 
>  <homo_lumo_gap> 
4.762 
 
>  <logP> 
0.641 
 
>  <lumo_energy> 
-0.759 
 
>  <melting_point> 
162.31 
 
>  <molecular_refractivity> 
59.05 
 
>  <oscillator_strength_1> 
0.0009 
 
>  <oscillator_strength_2> 
0.0001 
 
>  <oscillator_strength_3> 
0.0256 
 
>  <oscillator_strength_4> 
0.0016 
 
>  <open_babel_can_smiles> 
O[N][C](C/N=C(\Cc1ccc(cc1)OC)/O)O 
 
>  <mulliken_charges> 
31 
1   -0.220687 
2   -0.180439 
3   -0.167122 
4   -0.191337 
5   -0.168455 
6   -0.439709 
7   -0.192764 
8   0.066092 
9   0.380662 
10   0.500735 
11   0.524738 
12   -0.484115 
13   -0.280128 
14   -0.572338 
15   -0.601904 
16   -0.54498 
17   -0.501315 
18   0.178097 
19   0.156955 
20   0.15746 
21   0.142035 
22   0.143146 
23   0.14316 
24   0.151462 
25   0.187867 
26   0.189112 
27   0.177252 
28   0.179172 
29   0.421507 
30   0.43185 
31   0.41399 
 
>  <lowdin_charges> 
31 
1   -0.275631 
2   -0.155511 
3   -0.153676 
4   -0.210685 
5   -0.173525 
6   -0.305423 
7   -0.227993 
8   -0.054952 
9   0.107032 
10   0.140091 
11   0.092902 
12   -0.232785 
13   -0.121694 
14   -0.347139 
15   -0.362446 
16   -0.414281 
17   -0.191672 
18   0.16891 
19   0.147481 
20   0.14677 
21   0.162302 
22   0.164238 
23   0.16805 
24   0.172883 
25   0.17787 
26   0.177399 
27   0.163668 
28   0.163261 
29   0.361634 
30   0.359415 
31   0.353507 
 
$$$$ 
 
