PCCDB-ID:  53146 
public computational chemistry database (PCCDB) project, http://pccdb.org 
 
 25 24  0  0  1  0  0  0  0  0999 V2000 
    2.3338    1.1067   -3.3889 C   0  0  0  0  0  0  0  0  0  0  0  0 
    8.0323    0.1783    0.0055 C   0  0  0  0  0  0  0  0  0  0  0  0 
    3.1841    0.7955   -2.1529 C   0  0  0  0  0  0  0  0  0  0  0  0 
    6.6900   -0.5254    0.2417 C   0  0  0  0  0  0  0  0  0  0  0  0 
    3.6428   -0.6676   -2.1273 C   0  0  0  0  0  0  0  0  0  0  0  0 
    5.9194   -0.6890   -1.0716 C   0  0  2  0  0  0  0  0  0  0  0  0 
    3.8649   -1.7415   -0.0338 N   0  0  0  0  0  0  0  0  0  0  0  0 
    4.4888   -0.9932   -0.9739 N   0  0  0  0  0  0  0  0  0  0  0  0 
    4.5352   -2.1214    0.9128 O   0  0  0  0  0  0  0  0  0  0  0  0 
    6.4692   -2.9274   -1.4766 O   0  0  0  0  0  0  0  0  0  0  0  0 
    6.5606   -1.5735   -1.9993 O   0  0  0  0  0  0  0  0  0  0  0  0 
    2.0053    2.1513   -3.3877 H   0  0  0  0  0  0  0  0  0  0  0  0 
    1.4376    0.4757   -3.4231 H   0  0  0  0  0  0  0  0  0  0  0  0 
    2.8970    0.9346   -4.3141 H   0  0  0  0  0  0  0  0  0  0  0  0 
    8.5917    0.2619    0.9430 H   0  0  0  0  0  0  0  0  0  0  0  0 
    7.8936    1.1920   -0.3905 H   0  0  0  0  0  0  0  0  0  0  0  0 
    8.6518   -0.3737   -0.7098 H   0  0  0  0  0  0  0  0  0  0  0  0 
    2.6135    0.9988   -1.2382 H   0  0  0  0  0  0  0  0  0  0  0  0 
    4.0571    1.4624   -2.1308 H   0  0  0  0  0  0  0  0  0  0  0  0 
    6.0734    0.0499    0.9403 H   0  0  0  0  0  0  0  0  0  0  0  0 
    6.8345   -1.5025    0.7027 H   0  0  0  0  0  0  0  0  0  0  0  0 
    4.1979   -0.9224   -3.0377 H   0  0  0  0  0  0  0  0  0  0  0  0 
    2.7778   -1.3333   -2.0694 H   0  0  0  0  0  0  0  0  0  0  0  0 
    5.9815    0.2525   -1.6327 H   0  0  0  0  0  0  0  0  0  0  0  0 
    7.3885   -3.0675   -1.1847 H   0  0  0  0  0  0  0  0  0  0  0  0 
  1 12  1  0  0  0  0 
  1  3  1  0  0  0  0 
  2  4  1  0  0  0  0 
  2 15  1  0  0  0  0 
  3 19  1  0  0  0  0 
  3  5  1  0  0  0  0 
  3 18  1  0  0  0  0 
  4 21  1  0  0  0  0 
  4 20  1  0  0  0  0 
  5 23  1  0  0  0  0 
  5  8  1  0  0  0  0 
  6 24  1  6  0  0  0 
  6  8  1  0  0  0  0 
  6  4  1  0  0  0  0 
  7  9  2  0  0  0  0 
  8  7  1  0  0  0  0 
 10 25  1  0  0  0  0 
 11 10  1  0  0  0  0 
 11  6  1  0  0  0  0 
 13  1  1  0  0  0  0 
 14  1  1  0  0  0  0 
 16  2  1  0  0  0  0 
 17  2  1  0  0  0  0 
 22  5  1  0  0  0  0 
M  END 
>  <HBA> 
5 
 
>  <HBD> 
1 
 
>  <TPSA> 
62.13 
 
>  <cid> 
53146 
 
>  <dipole> 
3.34 
 
>  <excitation_energy_1> 
3.147 
 
>  <excitation_energy_2> 
5.073 
 
>  <excitation_energy_3> 
5.592 
 
>  <excitation_energy_4> 
5.663 
 
>  <homo_energy> 
-5.935 
 
>  <homo_lumo_gap> 
5.007 
 
>  <logP> 
1.605 
 
>  <lumo_energy> 
-0.928 
 
>  <melting_point> 
24.64 
 
>  <molecular_refractivity> 
41.25 
 
>  <oscillator_strength_1> 
0.001 
 
>  <oscillator_strength_2> 
0.0031 
 
>  <oscillator_strength_3> 
0.0234 
 
>  <oscillator_strength_4> 
0.055 
 
>  <open_babel_can_smiles> 
CCCN([C@H](OO)CC)N=O 
 
>  <mulliken_charges> 
25 
1   -0.449055 
2   -0.459051 
3   -0.258035 
4   -0.279435 
5   -0.140006 
6   0.281806 
7   0.15957 
8   -0.245839 
9   -0.363062 
10   -0.398215 
11   -0.299729 
12   0.152674 
13   0.151872 
14   0.148474 
15   0.15481 
16   0.143801 
17   0.151537 
18   0.15323 
19   0.136415 
20   0.158649 
21   0.179175 
22   0.170114 
23   0.176218 
24   0.156511 
25   0.417571 
 
>  <lowdin_charges> 
25 
1   -0.443604 
2   -0.451072 
3   -0.282409 
4   -0.29596 
5   -0.205695 
6   0.040181 
7   0.063882 
8   -0.05791 
9   -0.247501 
10   -0.330992 
11   -0.160036 
12   0.154983 
13   0.152125 
14   0.150177 
15   0.157297 
16   0.146594 
17   0.152313 
18   0.151178 
19   0.140595 
20   0.163127 
21   0.16592 
22   0.15798 
23   0.167663 
24   0.159655 
25   0.351509 
 
$$$$ 
 
