PCCDB-ID:  16270 
public computational chemistry database (PCCDB) project, http://pccdb.org 
 
 24 24  0  0  0  0  0  0  0  0999 V2000 
    0.7604   -0.8659    1.3837 C   0  0  0  0  0  0  0  0  0  0  0  0 
    2.2306   -1.2476    1.5857 C   0  0  0  0  0  0  0  0  0  0  0  0 
    5.7909    0.8543   -0.3389 C   0  0  0  0  0  0  0  0  0  0  0  0 
    5.7790    1.0596    1.2047 C   0  0  0  0  0  0  0  0  0  0  0  0 
    3.1517   -0.6895    0.4918 C   0  0  0  0  0  0  0  0  0  0  0  0 
    5.4943   -0.6465   -0.5546 C   0  0  0  0  0  0  0  0  0  0  0  0 
    5.3356   -0.2989    1.8127 C   0  0  0  0  0  0  0  0  0  0  0  0 
    4.6384   -1.0620    0.6613 C   0  0  0  0  0  0  0  0  0  0  0  0 
    0.1253   -1.2847    2.1728 H   0  0  0  0  0  0  0  0  0  0  0  0 
    0.3829   -1.2342    0.4217 H   0  0  0  0  0  0  0  0  0  0  0  0 
    0.6289    0.2233    1.3936 H   0  0  0  0  0  0  0  0  0  0  0  0 
    2.3252   -2.3428    1.6084 H   0  0  0  0  0  0  0  0  0  0  0  0 
    2.5636   -0.8942    2.5708 H   0  0  0  0  0  0  0  0  0  0  0  0 
    6.7420    1.1521   -0.7932 H   0  0  0  0  0  0  0  0  0  0  0  0 
    5.0149    1.4673   -0.8114 H   0  0  0  0  0  0  0  0  0  0  0  0 
    5.0840    1.8598    1.4824 H   0  0  0  0  0  0  0  0  0  0  0  0 
    6.7615    1.3594    1.5848 H   0  0  0  0  0  0  0  0  0  0  0  0 
    3.0408    0.4043    0.4509 H   0  0  0  0  0  0  0  0  0  0  0  0 
    2.8037   -1.0640   -0.4823 H   0  0  0  0  0  0  0  0  0  0  0  0 
    6.4334   -1.2156   -0.5448 H   0  0  0  0  0  0  0  0  0  0  0  0 
    5.0043   -0.8517   -1.5138 H   0  0  0  0  0  0  0  0  0  0  0  0 
    4.6981   -0.1746    2.6949 H   0  0  0  0  0  0  0  0  0  0  0  0 
    6.2158   -0.8673    2.1386 H   0  0  0  0  0  0  0  0  0  0  0  0 
    4.6978   -2.1474    0.8225 H   0  0  0  0  0  0  0  0  0  0  0  0 
  1 11  1  0  0  0  0 
  1  2  1  0  0  0  0 
  1  9  1  0  0  0  0 
  2 12  1  0  0  0  0 
  2 13  1  0  0  0  0 
  3  4  1  0  0  0  0 
  4 16  1  0  0  0  0 
  4 17  1  0  0  0  0 
  4  7  1  0  0  0  0 
  5  8  1  0  0  0  0 
  5  2  1  0  0  0  0 
  6 20  1  0  0  0  0 
  6  3  1  0  0  0  0 
  6  8  1  0  0  0  0 
  7 23  1  0  0  0  0 
  7 22  1  0  0  0  0 
  8 24  1  0  0  0  0 
  8  7  1  0  0  0  0 
 10  1  1  0  0  0  0 
 14  3  1  0  0  0  0 
 15  3  1  0  0  0  0 
 18  5  1  0  0  0  0 
 19  5  1  0  0  0  0 
 21  6  1  0  0  0  0 
M  END 
>  <HBA> 
0 
 
>  <HBD> 
0 
 
>  <TPSA> 
0.0 
 
>  <cid> 
16270 
 
>  <dipole> 
0.06 
 
>  <excitation_energy_1> 
7.541 
 
>  <excitation_energy_2> 
7.685 
 
>  <excitation_energy_3> 
7.892 
 
>  <excitation_energy_4> 
7.931 
 
>  <homo_energy> 
-8.071 
 
>  <homo_lumo_gap> 
10.199 
 
>  <logP> 
2.977 
 
>  <lumo_energy> 
2.128 
 
>  <melting_point> 
-5.31 
 
>  <molecular_refractivity> 
38.46 
 
>  <oscillator_strength_1> 
0.014 
 
>  <oscillator_strength_2> 
0.0147 
 
>  <oscillator_strength_3> 
0.004 
 
>  <oscillator_strength_4> 
0.0156 
 
>  <open_babel_can_smiles> 
CCCC1CCCC1 
 
>  <mulliken_charges> 
24 
1   -0.441468 
2   -0.251661 
3   -0.271564 
4   -0.271255 
5   -0.25022 
6   -0.270032 
7   -0.274334 
8   -0.086375 
9   0.140854 
10   0.14085 
11   0.14057 
12   0.129582 
13   0.133676 
14   0.133551 
15   0.136937 
16   0.135599 
17   0.13487 
18   0.127316 
19   0.124843 
20   0.129536 
21   0.128736 
22   0.133836 
23   0.131689 
24   0.114465 
 
>  <lowdin_charges> 
24 
1   -0.443418 
2   -0.270682 
3   -0.288792 
4   -0.289371 
5   -0.275199 
6   -0.282116 
7   -0.286589 
8   -0.129287 
9   0.149765 
10   0.145732 
11   0.143854 
12   0.136042 
13   0.138811 
14   0.144526 
15   0.143141 
16   0.143388 
17   0.144502 
18   0.136055 
19   0.138222 
20   0.140328 
21   0.141573 
22   0.143438 
23   0.142432 
24   0.133644 
 
$$$$ 
 
