PCCDB-ID:  44837 
public computational chemistry database (PCCDB) project, http://pccdb.org 
 
 26 27  0  0  0  0  0  0  0  0999 V2000 
   -2.5039   -3.6846   -4.5545 C   0  0  0  0  0  0  0  0  0  0  0  0 
   -3.2926    0.6737    1.8522 C   0  0  0  0  0  0  0  0  0  0  0  0 
   -2.6789   -3.9114   -3.1917 C   0  0  0  0  0  0  0  0  0  0  0  0 
   -2.8606   -0.4648    1.1787 C   0  0  0  0  0  0  0  0  0  0  0  0 
   -1.2401   -3.3077   -5.0131 C   0  0  0  0  0  0  0  0  0  0  0  0 
   -4.6627    0.8454    2.0613 C   0  0  0  0  0  0  0  0  0  0  0  0 
   -0.3633   -3.3741   -2.9078 C   0  0  0  0  0  0  0  0  0  0  0  0 
   -5.1704   -1.1128    1.0034 C   0  0  0  0  0  0  0  0  0  0  0  0 
   -1.6922   -3.9745   -0.8483 C   0  0  0  0  0  0  0  0  0  0  0  0 
   -1.5834   -3.7520   -2.3343 C   0  0  0  0  0  0  0  0  0  0  0  0 
   -3.8197   -1.3853    0.7411 C   0  0  0  0  0  0  0  0  0  0  0  0 
   -3.4775   -2.6348    0.0080 C   0  0  0  0  0  0  0  0  0  0  0  0 
   -0.1777   -3.1532   -4.2131 N   0  0  0  0  0  0  0  0  0  0  0  0 
   -5.5957   -0.0247    1.6503 N   0  0  0  0  0  0  0  0  0  0  0  0 
   -4.3004   -3.4337   -0.3978 O   0  0  0  0  0  0  0  0  0  0  0  0 
   -2.1422   -2.7802   -0.1495 O   0  0  0  0  0  0  0  0  0  0  0  0 
   -3.3287   -3.7996   -5.2515 H   0  0  0  0  0  0  0  0  0  0  0  0 
   -2.5858    1.4170    2.2080 H   0  0  0  0  0  0  0  0  0  0  0  0 
   -3.6449   -4.1989   -2.7878 H   0  0  0  0  0  0  0  0  0  0  0  0 
   -1.8079   -0.6438    0.9897 H   0  0  0  0  0  0  0  0  0  0  0  0 
   -1.0704   -3.1232   -6.0727 H   0  0  0  0  0  0  0  0  0  0  0  0 
   -5.0318    1.7253    2.5858 H   0  0  0  0  0  0  0  0  0  0  0  0 
    0.5154   -3.2478   -2.2743 H   0  0  0  0  0  0  0  0  0  0  0  0 
   -5.9282   -1.8167    0.6689 H   0  0  0  0  0  0  0  0  0  0  0  0 
   -0.7124   -4.1814   -0.4129 H   0  0  0  0  0  0  0  0  0  0  0  0 
   -2.3790   -4.7901   -0.6144 H   0  0  0  0  0  0  0  0  0  0  0  0 
  1  3  1  0  0  0  0 
  2  6  1  0  0  0  0 
  2 18  1  0  0  0  0 
  3 19  1  0  0  0  0 
  3 10  2  0  0  0  0 
  4  2  2  0  0  0  0 
  5  1  2  0  0  0  0 
  5 13  1  0  0  0  0 
  6 22  1  0  0  0  0 
  7 10  1  0  0  0  0 
  7 23  1  0  0  0  0 
  8 14  1  0  0  0  0 
  9 26  1  0  0  0  0 
  9 25  1  0  0  0  0 
  9 16  1  0  0  0  0 
 10  9  1  0  0  0  0 
 11  8  2  0  0  0  0 
 11  4  1  0  0  0  0 
 12 11  1  0  0  0  0 
 13  7  2  0  0  0  0 
 14  6  2  0  0  0  0 
 15 12  2  0  0  0  0 
 16 12  1  0  0  0  0 
 17  1  1  0  0  0  0 
 20  4  1  0  0  0  0 
 21  5  1  0  0  0  0 
 24  8  1  0  0  0  0 
M  END 
>  <HBA> 
4 
 
>  <HBD> 
0 
 
>  <TPSA> 
52.08 
 
>  <cid> 
44837 
 
>  <dipole> 
1.58 
 
>  <excitation_energy_1> 
4.245 
 
>  <excitation_energy_2> 
4.77 
 
>  <excitation_energy_3> 
4.825 
 
>  <excitation_energy_4> 
4.888 
 
>  <homo_energy> 
-7.023 
 
>  <homo_lumo_gap> 
5.361 
 
>  <logP> 
1.834 
 
>  <lumo_energy> 
-1.663 
 
>  <melting_point> 
90.67 
 
>  <molecular_refractivity> 
57.8 
 
>  <oscillator_strength_1> 
0.0003 
 
>  <oscillator_strength_2> 
0.0061 
 
>  <oscillator_strength_3> 
0.0011 
 
>  <oscillator_strength_4> 
0.0083 
 
>  <open_babel_can_smiles> 
O=C(c1cccnc1)OCc1cccnc1 
 
>  <mulliken_charges> 
26 
1   -0.140683 
2   -0.147566 
3   -0.144593 
4   -0.121698 
5   0.042772 
6   0.051433 
7   -0.001101 
8   0.026841 
9   -0.146271 
10   0.131451 
11   0.027128 
12   0.605348 
13   -0.408267 
14   -0.412615 
15   -0.491429 
16   -0.474905 
17   0.144052 
18   0.147203 
19   0.177762 
20   0.170682 
21   0.146334 
22   0.151979 
23   0.140256 
24   0.176585 
25   0.165124 
26   0.184178 
 
>  <lowdin_charges> 
26 
1   -0.173893 
2   -0.176079 
3   -0.12546 
4   -0.109108 
5   -0.080932 
6   -0.0718 
7   -0.093463 
8   -0.065282 
9   -0.127054 
10   -0.042382 
11   -0.063922 
12   0.204851 
13   -0.14645 
14   -0.143032 
15   -0.272551 
16   -0.191508 
17   0.168081 
18   0.170125 
19   0.178486 
20   0.176611 
21   0.156953 
22   0.162075 
23   0.156313 
24   0.17708 
25   0.161856 
26   0.170484 
 
$$$$ 
 
