PCCDB-ID:  10248 
public computational chemistry database (PCCDB) project, http://pccdb.org 
 
 31 31  0  0  0  0  0  0  0  0999 V2000 
    1.6073    1.2415   -2.6779 C   0  0  0  0  0  0  0  0  0  0  0  0 
    7.4789    2.1436    0.6821 C   0  0  0  0  0  0  0  0  0  0  0  0 
    6.4172   -4.2472   -0.5345 C   0  0  0  0  0  0  0  0  0  0  0  0 
    9.2626   -0.8291   -1.2192 C   0  0  0  0  0  0  0  0  0  0  0  0 
    2.4740    0.2280   -2.6868 C   0  0  0  0  0  0  0  0  0  0  0  0 
    2.8138   -0.6280   -1.4930 C   0  0  0  0  0  0  0  0  0  0  0  0 
    4.9977    0.5660   -1.0140 C   0  0  0  0  0  0  0  0  0  0  0  0 
    4.9700   -1.8473   -0.9507 C   0  0  0  0  0  0  0  0  0  0  0  0 
    4.2977   -0.6338   -1.1508 C   0  0  0  0  0  0  0  0  0  0  0  0 
    6.3553    0.5597   -0.6827 C   0  0  0  0  0  0  0  0  0  0  0  0 
    6.3289   -1.8626   -0.6192 C   0  0  0  0  0  0  0  0  0  0  0  0 
    7.0328   -0.6499   -0.4814 C   0  0  0  0  0  0  0  0  0  0  0  0 
    7.0233    1.7605   -0.6188 O   0  0  0  0  0  0  0  0  0  0  0  0 
    7.0696   -2.9933   -0.4227 O   0  0  0  0  0  0  0  0  0  0  0  0 
    8.3617   -0.6527   -0.1231 O   0  0  0  0  0  0  0  0  0  0  0  0 
    1.3969    1.8225   -3.5718 H   0  0  0  0  0  0  0  0  0  0  0  0 
    1.0706    1.5268   -1.7749 H   0  0  0  0  0  0  0  0  0  0  0  0 
    8.2034    1.4263    1.0783 H   0  0  0  0  0  0  0  0  0  0  0  0 
    6.6338    2.2372    1.3773 H   0  0  0  0  0  0  0  0  0  0  0  0 
    7.9533    3.1203    0.5593 H   0  0  0  0  0  0  0  0  0  0  0  0 
    6.0101   -4.4050   -1.5423 H   0  0  0  0  0  0  0  0  0  0  0  0 
    5.6069   -4.3476    0.1997 H   0  0  0  0  0  0  0  0  0  0  0  0 
    7.1815   -4.9999   -0.3321 H   0  0  0  0  0  0  0  0  0  0  0  0 
   10.2699   -0.7820   -0.7979 H   0  0  0  0  0  0  0  0  0  0  0  0 
    9.1383   -0.0298   -1.9603 H   0  0  0  0  0  0  0  0  0  0  0  0 
    9.1137   -1.8043   -1.6971 H   0  0  0  0  0  0  0  0  0  0  0  0 
    2.9966   -0.0223   -3.6106 H   0  0  0  0  0  0  0  0  0  0  0  0 
    2.4950   -1.6625   -1.6839 H   0  0  0  0  0  0  0  0  0  0  0  0 
    2.2330   -0.2814   -0.6269 H   0  0  0  0  0  0  0  0  0  0  0  0 
    4.5086    1.5213   -1.1763 H   0  0  0  0  0  0  0  0  0  0  0  0 
    4.4235   -2.7779   -1.0576 H   0  0  0  0  0  0  0  0  0  0  0  0 
  1 17  1  0  0  0  0 
  2 18  1  0  0  0  0 
  2 19  1  0  0  0  0 
  3 14  1  0  0  0  0 
  3 23  1  0  0  0  0 
  3 22  1  0  0  0  0 
  4 24  1  0  0  0  0 
  4 15  1  0  0  0  0 
  5  1  2  0  0  0  0 
  5  6  1  0  0  0  0 
  6  9  1  0  0  0  0 
  6 29  1  0  0  0  0 
  7 10  1  0  0  0  0 
  8 11  2  0  0  0  0 
  9  7  2  0  0  0  0 
  9  8  1  0  0  0  0 
 10 13  1  0  0  0  0 
 10 12  2  0  0  0  0 
 11 12  1  0  0  0  0 
 11 14  1  0  0  0  0 
 12 15  1  0  0  0  0 
 13  2  1  0  0  0  0 
 16  1  1  0  0  0  0 
 20  2  1  0  0  0  0 
 21  3  1  0  0  0  0 
 25  4  1  0  0  0  0 
 26  4  1  0  0  0  0 
 27  5  1  0  0  0  0 
 28  6  1  0  0  0  0 
 30  7  1  0  0  0  0 
 31  8  1  0  0  0  0 
M  END 
>  <HBA> 
3 
 
>  <HBD> 
0 
 
>  <TPSA> 
27.69 
 
>  <cid> 
10248 
 
>  <dipole> 
1.83 
 
>  <excitation_energy_1> 
4.886 
 
>  <excitation_energy_2> 
5.274 
 
>  <excitation_energy_3> 
5.358 
 
>  <excitation_energy_4> 
5.448 
 
>  <homo_energy> 
-5.714 
 
>  <homo_lumo_gap> 
5.829 
 
>  <logP> 
2.441 
 
>  <lumo_energy> 
0.114 
 
>  <melting_point> 
3.55 
 
>  <molecular_refractivity> 
60.02 
 
>  <oscillator_strength_1> 
0.0368 
 
>  <oscillator_strength_2> 
0.0358 
 
>  <oscillator_strength_3> 
0.0052 
 
>  <oscillator_strength_4> 
0.0662 
 
>  <open_babel_can_smiles> 
C=CCc1cc(OC)c(c(c1)OC)OC 
 
>  <mulliken_charges> 
31 
1   -0.34657 
2   -0.213944 
3   -0.212878 
4   -0.205835 
5   -0.027895 
6   -0.391121 
7   -0.241219 
8   -0.283726 
9   0.168946 
10   0.332333 
11   0.35928 
12   0.253532 
13   -0.527809 
14   -0.509121 
15   -0.521739 
16   0.140841 
17   0.135631 
18   0.171424 
19   0.138436 
20   0.154812 
21   0.150339 
22   0.153022 
23   0.169789 
24   0.155502 
25   0.151403 
26   0.152001 
27   0.13171 
28   0.148199 
29   0.155969 
30   0.13523 
31   0.123458 
 
>  <lowdin_charges> 
31 
1   -0.345205 
2   -0.277604 
3   -0.276918 
4   -0.27133 
5   -0.141052 
6   -0.267145 
7   -0.201633 
8   -0.233651 
9   0.003136 
10   0.082543 
11   0.085362 
12   0.037394 
13   -0.228385 
14   -0.193808 
15   -0.224686 
16   0.159852 
17   0.154437 
18   0.155506 
19   0.13929 
20   0.153543 
21   0.143383 
22   0.146301 
23   0.163663 
24   0.153478 
25   0.145791 
26   0.144957 
27   0.153658 
28   0.153114 
29   0.158402 
30   0.168462 
31   0.159147 
 
$$$$ 
 
