PCCDB-ID:  13200 
public computational chemistry database (PCCDB) project, http://pccdb.org 
 
 16 17  0  0  1  0  0  0  0  0999 V2000 
    1.2817   -0.6480    0.4891 C   0  0  0  0  0  0  0  0  0  0  0  0 
    1.2465    0.6913    0.5182 C   0  0  0  0  0  0  0  0  0  0  0  0 
   -1.2042   -0.7126    0.4714 C   0  0  0  0  0  0  0  0  0  0  0  0 
   -1.2394    0.6257    0.5004 C   0  0  0  0  0  0  0  0  0  0  0  0 
    0.0528   -1.1242   -0.3020 C   0  0  1  0  0  0  0  0  0  0  0  0 
   -0.0066    1.1362   -0.2528 C   0  0  2  0  0  0  0  0  0  0  0  0 
    0.0101    0.0295   -1.3829 C   0  0  1  0  0  0  0  0  0  0  0  0 
    1.0495    0.0766   -2.3131 O   0  0  0  0  0  0  0  0  0  0  0  0 
    1.9981   -1.3051    0.9699 H   0  0  0  0  0  0  0  0  0  0  0  0 
    1.9280    1.3636    1.0278 H   0  0  0  0  0  0  0  0  0  0  0  0 
   -1.9154   -1.4084    0.9024 H   0  0  0  0  0  0  0  0  0  0  0  0 
   -1.9856    1.2639    0.9605 H   0  0  0  0  0  0  0  0  0  0  0  0 
    0.0849   -2.1505   -0.6727 H   0  0  0  0  0  0  0  0  0  0  0  0 
   -0.0289    2.1778   -0.5786 H   0  0  0  0  0  0  0  0  0  0  0  0 
   -0.9168    0.0177   -1.9607 H   0  0  0  0  0  0  0  0  0  0  0  0 
    1.8775    0.0864   -1.7996 H   0  0  0  0  0  0  0  0  0  0  0  0 
  1  2  2  0  0  0  0 
  1  9  1  0  0  0  0 
  2 10  1  0  0  0  0 
  3  4  2  0  0  0  0 
  3 11  1  0  0  0  0 
  4 12  1  0  0  0  0 
  5 13  1  6  0  0  0 
  5  3  1  0  0  0  0 
  5  1  1  0  0  0  0 
  6 14  1  6  0  0  0 
  6  4  1  0  0  0  0 
  6  2  1  0  0  0  0 
  7 15  1  6  0  0  0 
  7  5  1  0  0  0  0 
  7  6  1  0  0  0  0 
  8 16  1  0  0  0  0 
  8  7  1  0  0  0  0 
M  END 
>  <HBA> 
1 
 
>  <HBD> 
1 
 
>  <TPSA> 
20.23 
 
>  <cid> 
13200 
 
>  <dipole> 
1.62 
 
>  <excitation_energy_1> 
4.952 
 
>  <excitation_energy_2> 
5.641 
 
>  <excitation_energy_3> 
5.651 
 
>  <excitation_energy_4> 
5.909 
 
>  <homo_energy> 
-6.294 
 
>  <homo_lumo_gap> 
6.055 
 
>  <logP> 
0.719 
 
>  <lumo_energy> 
-0.239 
 
>  <melting_point> 
56.13 
 
>  <molecular_refractivity> 
31.75 
 
>  <oscillator_strength_1> 
0.0 
 
>  <oscillator_strength_2> 
0.0111 
 
>  <oscillator_strength_3> 
0.0243 
 
>  <oscillator_strength_4> 
0.0273 
 
>  <open_babel_can_smiles> 
O[C@@H]1[C@@H]2C=C[C@H]1C=C2 
 
>  <mulliken_charges> 
16 
1   -0.119876 
2   -0.120056 
3   -0.098818 
4   -0.098778 
5   -0.20768 
6   -0.207677 
7   0.145827 
8   -0.61722 
9   0.136153 
10   0.136159 
11   0.133635 
12   0.133629 
13   0.127512 
14   0.127515 
15   0.145522 
16   0.384152 
 
>  <lowdin_charges> 
16 
1   -0.177148 
2   -0.177117 
3   -0.17131 
4   -0.171207 
5   -0.152699 
6   -0.152424 
7   0.005087 
8   -0.438206 
9   0.162809 
10   0.162872 
11   0.161664 
12   0.161625 
13   0.148714 
14   0.1485 
15   0.151063 
16   0.337777 
 
$$$$ 
 
