PCCDB-ID:  10885 
public computational chemistry database (PCCDB) project, http://pccdb.org 
 
 26 25  0  0  0  0  0  0  0  0999 V2000 
    2.7324    1.1484   -4.7333 C   0  0  0  0  0  0  0  0  0  0  0  0 
    5.4619   -1.3389    1.7948 C   0  0  0  0  0  0  0  0  0  0  0  0 
    6.3455    0.9946    1.3267 C   0  0  0  0  0  0  0  0  0  0  0  0 
    2.8547    2.2226   -3.6474 C   0  0  0  0  0  0  0  0  0  0  0  0 
    4.1299    2.0981   -2.8060 C   0  0  0  0  0  0  0  0  0  0  0  0 
    5.5536   -0.5029   -0.5625 C   0  0  0  0  0  0  0  0  0  0  0  0 
    5.3536   -0.0955    0.9000 C   0  0  0  0  0  0  0  0  0  0  0  0 
    4.1426    0.8745   -1.9068 C   0  0  0  0  0  0  0  0  0  0  0  0 
    3.1685    0.2216   -1.5958 O   0  0  0  0  0  0  0  0  0  0  0  0 
    5.3976    0.6146   -1.4687 O   0  0  0  0  0  0  0  0  0  0  0  0 
    1.8264    1.2977   -5.3311 H   0  0  0  0  0  0  0  0  0  0  0  0 
    2.6795    0.1490   -4.2900 H   0  0  0  0  0  0  0  0  0  0  0  0 
    3.5905    1.1747   -5.4170 H   0  0  0  0  0  0  0  0  0  0  0  0 
    5.2835   -1.0780    2.8438 H   0  0  0  0  0  0  0  0  0  0  0  0 
    6.4624   -1.7868    1.7315 H   0  0  0  0  0  0  0  0  0  0  0  0 
    4.7306   -2.1048    1.5112 H   0  0  0  0  0  0  0  0  0  0  0  0 
    6.1545    1.3149    2.3573 H   0  0  0  0  0  0  0  0  0  0  0  0 
    6.2748    1.8737    0.6784 H   0  0  0  0  0  0  0  0  0  0  0  0 
    7.3783    0.6244    1.2788 H   0  0  0  0  0  0  0  0  0  0  0  0 
    1.9866    2.1708   -2.9808 H   0  0  0  0  0  0  0  0  0  0  0  0 
    2.8440    3.2175   -4.1100 H   0  0  0  0  0  0  0  0  0  0  0  0 
    4.2426    2.9720   -2.1485 H   0  0  0  0  0  0  0  0  0  0  0  0 
    5.0282    2.0794   -3.4345 H   0  0  0  0  0  0  0  0  0  0  0  0 
    4.8465   -1.2862   -0.8473 H   0  0  0  0  0  0  0  0  0  0  0  0 
    6.5762   -0.8544   -0.7339 H   0  0  0  0  0  0  0  0  0  0  0  0 
    4.3332    0.3012    0.9854 H   0  0  0  0  0  0  0  0  0  0  0  0 
  1 12  1  0  0  0  0 
  1  4  1  0  0  0  0 
  2 14  1  0  0  0  0 
  3 17  1  0  0  0  0 
  4 20  1  0  0  0  0 
  4  5  1  0  0  0  0 
  5 22  1  0  0  0  0 
  5  8  1  0  0  0  0 
  6  7  1  0  0  0  0 
  7 26  1  0  0  0  0 
  7  3  1  0  0  0  0 
  7  2  1  0  0  0  0 
  8  9  2  0  0  0  0 
  8 10  1  0  0  0  0 
 10  6  1  0  0  0  0 
 11  1  1  0  0  0  0 
 13  1  1  0  0  0  0 
 15  2  1  0  0  0  0 
 16  2  1  0  0  0  0 
 18  3  1  0  0  0  0 
 19  3  1  0  0  0  0 
 21  4  1  0  0  0  0 
 23  5  1  0  0  0  0 
 24  6  1  0  0  0  0 
 25  6  1  0  0  0  0 
M  END 
>  <HBA> 
2 
 
>  <HBD> 
0 
 
>  <TPSA> 
26.3 
 
>  <cid> 
10885 
 
>  <dipole> 
1.5 
 
>  <excitation_energy_1> 
5.803 
 
>  <excitation_energy_2> 
6.937 
 
>  <excitation_energy_3> 
7.29 
 
>  <excitation_energy_4> 
7.376 
 
>  <homo_energy> 
-7.285 
 
>  <homo_lumo_gap> 
7.701 
 
>  <logP> 
1.986 
 
>  <lumo_energy> 
0.416 
 
>  <melting_point> 
-15.45 
 
>  <molecular_refractivity> 
41.85 
 
>  <oscillator_strength_1> 
0.0007 
 
>  <oscillator_strength_2> 
0.013 
 
>  <oscillator_strength_3> 
0.0428 
 
>  <oscillator_strength_4> 
0.0194 
 
>  <open_babel_can_smiles> 
CCCC(=O)OCC(C)C 
 
>  <mulliken_charges> 
26 
1   -0.450141 
2   -0.452271 
3   -0.443129 
4   -0.244559 
5   -0.356507 
6   -0.039802 
7   -0.09578 
8   0.625717 
9   -0.481981 
10   -0.469209 
11   0.144633 
12   0.165531 
13   0.136566 
14   0.149595 
15   0.140444 
16   0.150655 
17   0.143462 
18   0.153746 
19   0.13749 
20   0.157167 
21   0.131999 
22   0.171029 
23   0.165463 
24   0.166066 
25   0.143579 
26   0.150239 
 
>  <lowdin_charges> 
26 
1   -0.448401 
2   -0.443084 
3   -0.445244 
4   -0.269638 
5   -0.304492 
6   -0.135595 
7   -0.131685 
8   0.200974 
9   -0.271654 
10   -0.195988 
11   0.151838 
12   0.157117 
13   0.143866 
14   0.152999 
15   0.14571 
16   0.153571 
17   0.149283 
18   0.154354 
19   0.144143 
20   0.155459 
21   0.143484 
22   0.171225 
23   0.164795 
24   0.15946 
25   0.147972 
26   0.149533 
 
$$$$ 
 
