PCCDB-ID:  70701 
public computational chemistry database (PCCDB) project, http://pccdb.org 
 
 20 19  0  0  0  0  0  0  0  0999 V2000 
    4.1290   -2.2334    0.1478 C   0  0  0  0  0  0  0  0  0  0  0  0 
    6.1912    3.7828    4.1424 C   0  0  0  0  0  0  0  0  0  0  0  0 
    4.7513   -1.1669    0.6494 C   0  0  0  0  0  0  0  0  0  0  0  0 
    4.3562    0.2447    0.3354 C   0  0  0  0  0  0  0  0  0  0  0  0 
    4.2304    2.1972    3.5061 C   0  0  0  0  0  0  0  0  0  0  0  0 
    4.7717    3.6330    3.6433 C   0  0  0  0  0  0  0  0  0  0  0  0 
    4.8470    1.4664    2.3215 C   0  0  0  0  0  0  0  0  0  0  0  0 
    4.0622    4.5780    3.3672 O   0  0  0  0  0  0  0  0  0  0  0  0 
    6.0398    1.3535    2.1210 O   0  0  0  0  0  0  0  0  0  0  0  0 
    3.8936    0.9563    1.5216 O   0  0  0  0  0  0  0  0  0  0  0  0 
    4.4567   -3.2446    0.3725 H   0  0  0  0  0  0  0  0  0  0  0  0 
    3.2706   -2.1378   -0.5144 H   0  0  0  0  0  0  0  0  0  0  0  0 
    6.2547    3.4365    5.1828 H   0  0  0  0  0  0  0  0  0  0  0  0 
    6.4942    4.8303    4.0911 H   0  0  0  0  0  0  0  0  0  0  0  0 
    6.8637    3.1514    3.5525 H   0  0  0  0  0  0  0  0  0  0  0  0 
    5.6095   -1.2832    1.3080 H   0  0  0  0  0  0  0  0  0  0  0  0 
    3.5053    0.2797   -0.3476 H   0  0  0  0  0  0  0  0  0  0  0  0 
    5.1949    0.8054   -0.0878 H   0  0  0  0  0  0  0  0  0  0  0  0 
    3.1460    2.2389    3.4018 H   0  0  0  0  0  0  0  0  0  0  0  0 
    4.4910    1.6234    4.4049 H   0  0  0  0  0  0  0  0  0  0  0  0 
  1 11  1  0  0  0  0 
  1  3  2  0  0  0  0 
  2 13  1  0  0  0  0 
  3 16  1  0  0  0  0 
  4  3  1  0  0  0  0 
  4 10  1  0  0  0  0 
  5  6  1  0  0  0  0 
  5 20  1  0  0  0  0 
  6  2  1  0  0  0  0 
  7  5  1  0  0  0  0 
  8  6  2  0  0  0  0 
  9  7  2  0  0  0  0 
 10  7  1  0  0  0  0 
 12  1  1  0  0  0  0 
 14  2  1  0  0  0  0 
 15  2  1  0  0  0  0 
 17  4  1  0  0  0  0 
 18  4  1  0  0  0  0 
 19  5  1  0  0  0  0 
M  END 
>  <HBA> 
3 
 
>  <HBD> 
0 
 
>  <TPSA> 
43.37 
 
>  <cid> 
70701 
 
>  <dipole> 
2.63 
 
>  <excitation_energy_1> 
4.358 
 
>  <excitation_energy_2> 
5.636 
 
>  <excitation_energy_3> 
5.884 
 
>  <excitation_energy_4> 
6.109 
 
>  <homo_energy> 
-6.852 
 
>  <homo_lumo_gap> 
6.161 
 
>  <logP> 
0.695 
 
>  <lumo_energy> 
-0.691 
 
>  <melting_point> 
-13.99 
 
>  <molecular_refractivity> 
36.77 
 
>  <oscillator_strength_1> 
0.0016 
 
>  <oscillator_strength_2> 
0.0067 
 
>  <oscillator_strength_3> 
0.0102 
 
>  <oscillator_strength_4> 
0.0006 
 
>  <open_babel_can_smiles> 
C=CCOC(=O)CC(=O)C 
 
>  <mulliken_charges> 
20 
1   -0.328212 
2   -0.538702 
3   -0.063472 
4   -0.09966 
5   -0.436616 
6   0.452329 
7   0.619818 
8   -0.420304 
9   -0.475582 
10   -0.442524 
11   0.152519 
12   0.145848 
13   0.167204 
14   0.177539 
15   0.207058 
16   0.159004 
17   0.162956 
18   0.179718 
19   0.19509 
20   0.185987 
 
>  <lowdin_charges> 
20 
1   -0.315213 
2   -0.479903 
3   -0.160476 
4   -0.127977 
5   -0.329479 
6   0.175997 
7   0.19962 
8   -0.223509 
9   -0.2743 
10   -0.178705 
11   0.164202 
12   0.158778 
13   0.170187 
14   0.171084 
15   0.189251 
16   0.166582 
17   0.161657 
18   0.167503 
19   0.18194 
20   0.182762 
 
$$$$ 
 
