PCCDB-ID:  56735 
public computational chemistry database (PCCDB) project, http://pccdb.org 
 
 28 29  0  0  0  0  0  0  0  0999 V2000 
    1.4388   -2.7393    0.8086 C   0  0  0  0  0  0  0  0  0  0  0  0 
    2.9433   -2.9432    0.8440 C   0  0  0  0  0  0  0  0  0  0  0  0 
    5.3934   -0.3591    1.7068 C   0  0  0  0  0  0  0  0  0  0  0  0 
    6.7431   -0.1090    1.8599 C   0  0  0  0  0  0  0  0  0  0  0  0 
   10.0171   -0.4144    2.0430 C   0  0  0  0  0  0  0  0  0  0  0  0 
   10.2516   -0.4116    3.5630 C   0  0  0  0  0  0  0  0  0  0  0  0 
    5.7619   -2.6989    1.0793 C   0  0  0  0  0  0  0  0  0  0  0  0 
    4.8985   -1.6385    1.3213 C   0  0  0  0  0  0  0  0  0  0  0  0 
    7.1386   -2.4491    1.2346 C   0  0  0  0  0  0  0  0  0  0  0  0 
    7.6163   -1.1829    1.6163 C   0  0  0  0  0  0  0  0  0  0  0  0 
    8.2152   -3.2919    1.0628 N   0  0  0  0  0  0  0  0  0  0  0  0 
    9.2996   -2.6262    1.3117 N   0  0  0  0  0  0  0  0  0  0  0  0 
    8.9765   -1.3421    1.6404 N   0  0  0  0  0  0  0  0  0  0  0  0 
   11.2405    0.5390    3.9239 O   0  0  0  0  0  0  0  0  0  0  0  0 
    3.5385   -1.7019    1.2211 O   0  0  0  0  0  0  0  0  0  0  0  0 
    0.9402   -3.6713    0.5218 H   0  0  0  0  0  0  0  0  0  0  0  0 
    1.1715   -1.9645    0.0833 H   0  0  0  0  0  0  0  0  0  0  0  0 
    1.0674   -2.4347    1.7921 H   0  0  0  0  0  0  0  0  0  0  0  0 
    3.3224   -3.2518   -0.1409 H   0  0  0  0  0  0  0  0  0  0  0  0 
    3.2190   -3.7217    1.5698 H   0  0  0  0  0  0  0  0  0  0  0  0 
    4.6623    0.4242    1.8795 H   0  0  0  0  0  0  0  0  0  0  0  0 
    7.0986    0.8738    2.1540 H   0  0  0  0  0  0  0  0  0  0  0  0 
   10.9291   -0.7145    1.5184 H   0  0  0  0  0  0  0  0  0  0  0  0 
    9.7472    0.5922    1.7089 H   0  0  0  0  0  0  0  0  0  0  0  0 
   10.5065   -1.4282    3.8951 H   0  0  0  0  0  0  0  0  0  0  0  0 
    9.3345   -0.1138    4.0809 H   0  0  0  0  0  0  0  0  0  0  0  0 
    5.4210   -3.6823    0.7820 H   0  0  0  0  0  0  0  0  0  0  0  0 
   12.1057    0.1807    3.6724 H   0  0  0  0  0  0  0  0  0  0  0  0 
  1  2  1  0  0  0  0 
  1 18  1  0  0  0  0 
  2 15  1  0  0  0  0 
  2 20  1  0  0  0  0 
  3  4  1  0  0  0  0 
  3 21  1  0  0  0  0 
  4 22  1  0  0  0  0 
  5  6  1  0  0  0  0 
  6 25  1  0  0  0  0 
  6 14  1  0  0  0  0 
  6 26  1  0  0  0  0 
  7  9  2  0  0  0  0 
  7  8  1  0  0  0  0 
  8  3  2  0  0  0  0 
  9 10  1  0  0  0  0 
 10 13  1  0  0  0  0 
 10  4  2  0  0  0  0 
 11  9  1  0  0  0  0 
 11 12  2  0  0  0  0 
 12 13  1  0  0  0  0 
 13  5  1  0  0  0  0 
 15  8  1  0  0  0  0 
 16  1  1  0  0  0  0 
 17  1  1  0  0  0  0 
 19  2  1  0  0  0  0 
 23  5  1  0  0  0  0 
 24  5  1  0  0  0  0 
 27  7  1  0  0  0  0 
 28 14  1  0  0  0  0 
M  END 
>  <HBA> 
5 
 
>  <HBD> 
1 
 
>  <TPSA> 
60.17 
 
>  <cid> 
56735 
 
>  <dipole> 
1.79 
 
>  <excitation_energy_1> 
4.263 
 
>  <excitation_energy_2> 
4.951 
 
>  <excitation_energy_3> 
5.082 
 
>  <excitation_energy_4> 
5.349 
 
>  <homo_energy> 
-5.856 
 
>  <homo_lumo_gap> 
4.803 
 
>  <logP> 
0.822 
 
>  <lumo_energy> 
-1.053 
 
>  <melting_point> 
105.23 
 
>  <molecular_refractivity> 
56.06 
 
>  <oscillator_strength_1> 
0.0728 
 
>  <oscillator_strength_2> 
0.0031 
 
>  <oscillator_strength_3> 
0.1239 
 
>  <oscillator_strength_4> 
0.0148 
 
>  <open_babel_can_smiles> 
OCCn1nnc2c1ccc(c2)OCC 
 
>  <mulliken_charges> 
28 
1   -0.457562 
2   -0.029691 
3   -0.187386 
4   -0.157365 
5   -0.173199 
6   -0.042445 
7   -0.235811 
8   0.376896 
9   0.233987 
10   0.367015 
11   -0.377964 
12   -0.057669 
13   -0.399348 
14   -0.604626 
15   -0.522419 
16   0.15087 
17   0.163899 
18   0.163817 
19   0.144106 
20   0.143932 
21   0.146619 
22   0.144982 
23   0.175017 
24   0.172988 
25   0.152538 
26   0.160851 
27   0.151328 
28   0.396641 
 
>  <lowdin_charges> 
28 
1   -0.447899 
2   -0.124332 
3   -0.16631 
4   -0.171713 
5   -0.215693 
6   -0.142402 
7   -0.210215 
8   0.09811 
9   -0.005851 
10   -0.002826 
11   -0.136659 
12   -0.074504 
13   0.013503 
14   -0.456961 
15   -0.204259 
16   0.15876 
17   0.160994 
18   0.159861 
19   0.139533 
20   0.140844 
21   0.172355 
22   0.165821 
23   0.167798 
24   0.163231 
25   0.141894 
26   0.153846 
27   0.17549 
28   0.347584 
 
$$$$ 
 
