PCCDB-ID:  18407 
public computational chemistry database (PCCDB) project, http://pccdb.org 
 
 19 18  0  0  0  0  0  0  0  0999 V2000 
    5.2457    0.8112   -1.0761 C   0  0  0  0  0  0  0  0  0  0  0  0 
    2.7122   -2.2263   -1.1716 C   0  0  0  0  0  0  0  0  0  0  0  0 
    3.5323   -1.0658   -0.5969 C   0  0  0  0  0  0  0  0  0  0  0  0 
    3.5462   -3.4195   -1.6530 C   0  0  0  0  0  0  0  0  0  0  0  0 
    4.4092   -0.3399   -1.6090 C   0  0  0  0  0  0  0  0  0  0  0  0 
    4.2718   -4.1560   -0.5353 C   0  0  0  0  0  0  0  0  0  0  0  0 
    4.4450   -0.6587   -2.7853 O   0  0  0  0  0  0  0  0  0  0  0  0 
    4.1812   -3.9021    0.6412 O   0  0  0  0  0  0  0  0  0  0  0  0 
    5.0687   -5.1834   -0.9425 O   0  0  0  0  0  0  0  0  0  0  0  0 
    5.9540    0.4469   -0.3212 H   0  0  0  0  0  0  0  0  0  0  0  0 
    4.6114    1.5567   -0.5810 H   0  0  0  0  0  0  0  0  0  0  0  0 
    5.7951    1.2804   -1.8946 H   0  0  0  0  0  0  0  0  0  0  0  0 
    2.1198   -1.8632   -2.0182 H   0  0  0  0  0  0  0  0  0  0  0  0 
    2.0122   -2.5709   -0.4033 H   0  0  0  0  0  0  0  0  0  0  0  0 
    4.1582   -1.4150    0.2345 H   0  0  0  0  0  0  0  0  0  0  0  0 
    2.8587   -0.3183   -0.1523 H   0  0  0  0  0  0  0  0  0  0  0  0 
    4.2735   -3.0868   -2.4036 H   0  0  0  0  0  0  0  0  0  0  0  0 
    2.8947   -4.1475   -2.1583 H   0  0  0  0  0  0  0  0  0  0  0  0 
    5.0474   -5.2537   -1.9116 H   0  0  0  0  0  0  0  0  0  0  0  0 
  1 11  1  0  0  0  0 
  1 10  1  0  0  0  0 
  2  3  1  0  0  0  0 
  2 14  1  0  0  0  0 
  3 16  1  0  0  0  0 
  3 15  1  0  0  0  0 
  4  2  1  0  0  0  0 
  4  6  1  0  0  0  0 
  5  1  1  0  0  0  0 
  5  3  1  0  0  0  0 
  6  8  2  0  0  0  0 
  7  5  2  0  0  0  0 
  9  6  1  0  0  0  0 
 12  1  1  0  0  0  0 
 13  2  1  0  0  0  0 
 17  4  1  0  0  0  0 
 18  4  1  0  0  0  0 
 19  9  1  0  0  0  0 
M  END 
>  <HBA> 
3 
 
>  <HBD> 
1 
 
>  <TPSA> 
54.37 
 
>  <cid> 
18407 
 
>  <dipole> 
1.93 
 
>  <excitation_energy_1> 
4.419 
 
>  <excitation_energy_2> 
5.698 
 
>  <excitation_energy_3> 
6.018 
 
>  <excitation_energy_4> 
6.234 
 
>  <homo_energy> 
-6.789 
 
>  <homo_lumo_gap> 
6.294 
 
>  <logP> 
0.83 
 
>  <lumo_energy> 
-0.495 
 
>  <melting_point> 
71.99 
 
>  <molecular_refractivity> 
32.93 
 
>  <oscillator_strength_1> 
0.0001 
 
>  <oscillator_strength_2> 
0.002 
 
>  <oscillator_strength_3> 
0.0081 
 
>  <oscillator_strength_4> 
0.0021 
 
>  <open_babel_can_smiles> 
CC(=O)CCCC(=O)O 
 
>  <mulliken_charges> 
19 
1   -0.527907 
2   -0.242908 
3   -0.368876 
4   -0.415054 
5   0.452713 
6   0.605326 
7   -0.446867 
8   -0.445983 
9   -0.56683 
10   0.174978 
11   0.168636 
12   0.17949 
13   0.151168 
14   0.155828 
15   0.19294 
16   0.160859 
17   0.193454 
18   0.168189 
19   0.410844 
 
>  <lowdin_charges> 
19 
1   -0.478122 
2   -0.267583 
3   -0.319175 
4   -0.331283 
5   0.16713 
6   0.1934 
7   -0.247253 
8   -0.245759 
9   -0.35595 
10   0.17443 
11   0.170939 
12   0.17388 
13   0.157719 
14   0.159906 
15   0.178657 
16   0.167674 
17   0.176257 
18   0.168363 
19   0.35677 
 
$$$$ 
 
