PCCDB-ID:  34272 
public computational chemistry database (PCCDB) project, http://pccdb.org 
 
 23 23  0  0  0  0  0  0  0  0999 V2000 
   -2.2249   -1.0280    0.4628 C   0  0  0  0  0  0  0  0  0  0  0  0 
   -1.4677   -0.6922    1.5850 C   0  0  0  0  0  0  0  0  0  0  0  0 
   -1.6116   -1.0795   -0.7912 C   0  0  0  0  0  0  0  0  0  0  0  0 
    2.8659   -1.4334   -0.2193 C   0  0  0  0  0  0  0  0  0  0  0  0 
   -0.1056   -0.4125    1.4530 C   0  0  0  0  0  0  0  0  0  0  0  0 
   -0.2514   -0.7995   -0.9174 C   0  0  0  0  0  0  0  0  0  0  0  0 
    2.0064   -0.1804    0.0552 C   0  0  0  0  0  0  0  0  0  0  0  0 
    2.8587   -2.4252    0.9398 C   0  0  0  0  0  0  0  0  0  0  0  0 
    0.5238   -0.4644    0.2026 C   0  0  0  0  0  0  0  0  0  0  0  0 
    3.0448   -4.7101    0.4134 N   0  0  0  0  0  0  0  0  0  0  0  0 
    3.7833   -5.6000    0.1709 O   0  0  0  0  0  0  0  0  0  0  0  0 
    3.7660   -3.5119    0.6735 O   0  0  0  0  0  0  0  0  0  0  0  0 
   -3.2854   -1.2430    0.5620 H   0  0  0  0  0  0  0  0  0  0  0  0 
   -1.9351   -0.6463    2.5652 H   0  0  0  0  0  0  0  0  0  0  0  0 
   -2.1945   -1.3339   -1.6726 H   0  0  0  0  0  0  0  0  0  0  0  0 
    3.9009   -1.1266   -0.4144 H   0  0  0  0  0  0  0  0  0  0  0  0 
    2.5078   -1.9433   -1.1225 H   0  0  0  0  0  0  0  0  0  0  0  0 
    0.4757   -0.1435    2.3326 H   0  0  0  0  0  0  0  0  0  0  0  0 
    0.2152   -0.8353   -1.8999 H   0  0  0  0  0  0  0  0  0  0  0  0 
    2.1642    0.5250   -0.7705 H   0  0  0  0  0  0  0  0  0  0  0  0 
    2.3763    0.3186    0.9604 H   0  0  0  0  0  0  0  0  0  0  0  0 
    1.8597   -2.8385    1.1119 H   0  0  0  0  0  0  0  0  0  0  0  0 
    3.2090   -1.9559    1.8663 H   0  0  0  0  0  0  0  0  0  0  0  0 
  1 13  1  0  0  0  0 
  1  2  2  0  0  0  0 
  2 14  1  0  0  0  0 
  3  1  1  0  0  0  0 
  4  7  1  0  0  0  0 
  4  8  1  0  0  0  0 
  5  2  1  0  0  0  0 
  5 18  1  0  0  0  0 
  6  3  2  0  0  0  0 
  6  9  1  0  0  0  0 
  7  9  1  0  0  0  0 
  7 21  1  0  0  0  0 
  8 22  1  0  0  0  0 
  8 23  1  0  0  0  0 
  9  5  2  0  0  0  0 
 10 12  1  0  0  0  0 
 11 10  1  0  0  0  0 
 12  8  1  0  0  0  0 
 15  3  1  0  0  0  0 
 16  4  1  0  0  0  0 
 17  4  1  0  0  0  0 
 19  6  1  0  0  0  0 
 20  7  1  0  0  0  0 
M  RAD  2  10   2  11   2 
M  END 
>  <HBA> 
1 
 
>  <HBD> 
0 
 
>  <TPSA> 
38.66 
 
>  <cid> 
34272 
 
>  <dipole> 
2.76 
 
>  <excitation_energy_1> 
3.389 
 
>  <excitation_energy_2> 
3.991 
 
>  <excitation_energy_3> 
4.215 
 
>  <excitation_energy_4> 
5.29 
 
>  <homo_energy> 
-6.672 
 
>  <homo_lumo_gap> 
4.689 
 
>  <logP> 
2.317 
 
>  <lumo_energy> 
-1.984 
 
>  <melting_point> 
18.27 
 
>  <molecular_refractivity> 
46.84 
 
>  <oscillator_strength_1> 
0.0007 
 
>  <oscillator_strength_2> 
0.004 
 
>  <oscillator_strength_3> 
0.0003 
 
>  <oscillator_strength_4> 
0.0007 
 
>  <open_babel_can_smiles> 
[O][N]OCCCc1ccccc1 
 
>  <mulliken_charges> 
23 
1   -0.1308 
2   -0.125274 
3   -0.126664 
4   -0.267308 
5   -0.190047 
6   -0.179763 
7   -0.36285 
8   -0.041858 
9   0.172217 
10   0.279778 
11   -0.240564 
12   -0.357182 
13   0.131284 
14   0.131352 
15   0.132009 
16   0.153672 
17   0.151226 
18   0.123038 
19   0.12574 
20   0.155423 
21   0.1443 
22   0.170474 
23   0.151797 
 
>  <lowdin_charges> 
23 
1   -0.156601 
2   -0.153655 
3   -0.153268 
4   -0.283147 
5   -0.173028 
6   -0.166356 
7   -0.275481 
8   -0.149086 
9   -0.005906 
10   0.134957 
11   -0.129007 
12   -0.192239 
13   0.156974 
14   0.158208 
15   0.159445 
16   0.152836 
17   0.151332 
18   0.154412 
19   0.154706 
20   0.159011 
21   0.149529 
22   0.156249 
23   0.150113 
 
$$$$ 
 
