PCCDB-ID:  59137 
public computational chemistry database (PCCDB) project, http://pccdb.org 
 
 33 34  0  0  0  0  0  0  0  0999 V2000 
    4.9531    1.3926   -0.6662 C   0  0  0  0  0  0  0  0  0  0  0  0 
    2.8091    0.5905    0.4366 C   0  0  0  0  0  0  0  0  0  0  0  0 
    7.1984   -4.9156    1.4851 C   0  0  0  0  0  0  0  0  0  0  0  0 
    5.9607   -4.5592    0.9059 C   0  0  0  0  0  0  0  0  0  0  0  0 
    8.0361   -3.9441    1.9883 C   0  0  0  0  0  0  0  0  0  0  0  0 
    5.5872   -3.2347    0.8425 C   0  0  0  0  0  0  0  0  0  0  0  0 
    8.1262   -0.2279    2.3655 C   0  0  0  0  0  0  0  0  0  0  0  0 
    6.8896    0.1389    1.7861 C   0  0  0  0  0  0  0  0  0  0  0  0 
    9.8931   -1.8641    3.0650 C   0  0  0  0  0  0  0  0  0  0  0  0 
    4.3224    0.7311    0.5596 C   0  0  0  0  0  0  0  0  0  0  0  0 
    8.5457   -1.5358    2.4607 C   0  0  0  0  0  0  0  0  0  0  0  0 
    7.6906   -2.5642    1.9411 C   0  0  0  0  0  0  0  0  0  0  0  0 
    6.4315   -2.2146    1.3512 C   0  0  0  0  0  0  0  0  0  0  0  0 
    6.0465   -0.8337    1.2875 C   0  0  0  0  0  0  0  0  0  0  0  0 
   10.9155   -2.0645    2.0195 N   0  0  0  0  0  0  0  0  0  0  0  0 
    4.8236   -0.6082    0.7267 O   0  0  0  0  0  0  0  0  0  0  0  0 
    4.5758    2.4148   -0.7835 H   0  0  0  0  0  0  0  0  0  0  0  0 
    4.7008    0.8255   -1.5689 H   0  0  0  0  0  0  0  0  0  0  0  0 
    6.0428    1.4364   -0.5842 H   0  0  0  0  0  0  0  0  0  0  0  0 
    2.3434    1.5749    0.3201 H   0  0  0  0  0  0  0  0  0  0  0  0 
    2.3929    0.1101    1.3273 H   0  0  0  0  0  0  0  0  0  0  0  0 
    2.5523   -0.0196   -0.4363 H   0  0  0  0  0  0  0  0  0  0  0  0 
    7.4907   -5.9613    1.5357 H   0  0  0  0  0  0  0  0  0  0  0  0 
    5.3047   -5.3302    0.5109 H   0  0  0  0  0  0  0  0  0  0  0  0 
    8.9845   -4.2373    2.4278 H   0  0  0  0  0  0  0  0  0  0  0  0 
    4.6396   -2.9484    0.4013 H   0  0  0  0  0  0  0  0  0  0  0  0 
    8.7706    0.5618    2.7444 H   0  0  0  0  0  0  0  0  0  0  0  0 
    6.6253    1.1886    1.7433 H   0  0  0  0  0  0  0  0  0  0  0  0 
    9.7878   -2.7216    3.7530 H   0  0  0  0  0  0  0  0  0  0  0  0 
   10.2189   -1.0174    3.6803 H   0  0  0  0  0  0  0  0  0  0  0  0 
    4.5527    1.3093    1.4644 H   0  0  0  0  0  0  0  0  0  0  0  0 
   10.6057   -2.7929    1.3775 H   0  0  0  0  0  0  0  0  0  0  0  0 
   11.7753   -2.4070    2.4481 H   0  0  0  0  0  0  0  0  0  0  0  0 
  1 19  1  0  0  0  0 
  1 10  1  0  0  0  0 
  2 10  1  0  0  0  0 
  2 21  1  0  0  0  0 
  3 23  1  0  0  0  0 
  3  5  2  0  0  0  0 
  4  3  1  0  0  0  0 
  5 25  1  0  0  0  0 
  6  4  2  0  0  0  0 
  6 13  1  0  0  0  0 
  7 11  1  0  0  0  0 
  7 27  1  0  0  0  0 
  8  7  2  0  0  0  0 
  9 30  1  0  0  0  0 
  9 29  1  0  0  0  0 
 10 16  1  0  0  0  0 
 10 31  1  0  0  0  0 
 11  9  1  0  0  0  0 
 12  5  1  0  0  0  0 
 12 11  2  0  0  0  0 
 13 12  1  0  0  0  0 
 14 13  2  0  0  0  0 
 14  8  1  0  0  0  0 
 15 33  1  0  0  0  0 
 15  9  1  0  0  0  0 
 16 14  1  0  0  0  0 
 17  1  1  0  0  0  0 
 18  1  1  0  0  0  0 
 20  2  1  0  0  0  0 
 22  2  1  0  0  0  0 
 24  4  1  0  0  0  0 
 26  6  1  0  0  0  0 
 28  8  1  0  0  0  0 
 32 15  1  0  0  0  0 
M  END 
>  <HBA> 
2 
 
>  <HBD> 
1 
 
>  <TPSA> 
35.25 
 
>  <cid> 
59137 
 
>  <dipole> 
0.99 
 
>  <excitation_energy_1> 
3.988 
 
>  <excitation_energy_2> 
4.296 
 
>  <excitation_energy_3> 
4.714 
 
>  <excitation_energy_4> 
4.942 
 
>  <homo_energy> 
-5.279 
 
>  <homo_lumo_gap> 
4.539 
 
>  <logP> 
3.786 
 
>  <lumo_energy> 
-0.74 
 
>  <melting_point> 
111.52 
 
>  <molecular_refractivity> 
67.73 
 
>  <oscillator_strength_1> 
0.1178 
 
>  <oscillator_strength_2> 
0.0226 
 
>  <oscillator_strength_3> 
0.004 
 
>  <oscillator_strength_4> 
0.0241 
 
>  <open_babel_can_smiles> 
NCc1ccc(c2c1cccc2)OC(C)C 
 
>  <mulliken_charges> 
33 
1   -0.458847 
2   -0.451592 
3   -0.128217 
4   -0.137528 
5   -0.215204 
6   -0.1715 
7   -0.202043 
8   -0.202505 
9   -0.225873 
10   0.139271 
11   0.126719 
12   0.08414 
13   0.049855 
14   0.337986 
15   -0.710024 
16   -0.5374 
17   0.146024 
18   0.157271 
19   0.164735 
20   0.146383 
21   0.160364 
22   0.156583 
23   0.126007 
24   0.126579 
25   0.124166 
26   0.146502 
27   0.12698 
28   0.131326 
29   0.121453 
30   0.143626 
31   0.134854 
32   0.298898 
33   0.291011 
 
>  <lowdin_charges> 
33 
1   -0.455567 
2   -0.447545 
3   -0.154924 
4   -0.165173 
5   -0.171386 
6   -0.148294 
7   -0.149487 
8   -0.225579 
9   -0.204377 
10   0.013346 
11   -0.02931 
12   -0.000319 
13   -0.023659 
14   0.106441 
15   -0.561245 
16   -0.200335 
17   0.154772 
18   0.158185 
19   0.159585 
20   0.155084 
21   0.160678 
22   0.157332 
23   0.155249 
24   0.158192 
25   0.155946 
26   0.168088 
27   0.159218 
28   0.159906 
29   0.123086 
30   0.1485 
31   0.137413 
32   0.254358 
33   0.251823 
 
$$$$ 
 
