PCCDB-ID:  26295 
public computational chemistry database (PCCDB) project, http://pccdb.org 
 
 27 28  0  0  0  0  0  0  0  0999 V2000 
   -0.8376   -1.7271    1.2111 C   0  0  0  0  0  0  0  0  0  0  0  0 
    0.1907   -2.5797    1.6195 C   0  0  0  0  0  0  0  0  0  0  0  0 
   -0.5502   -0.6635    0.3532 C   0  0  0  0  0  0  0  0  0  0  0  0 
    4.4432   -4.0485   -1.6744 C   0  0  0  0  0  0  0  0  0  0  0  0 
    5.8028   -3.8307   -1.4500 C   0  0  0  0  0  0  0  0  0  0  0  0 
    1.4987   -2.3781    1.1784 C   0  0  0  0  0  0  0  0  0  0  0  0 
    0.7517   -0.4558   -0.1025 C   0  0  0  0  0  0  0  0  0  0  0  0 
    3.4892   -3.1364   -1.2224 C   0  0  0  0  0  0  0  0  0  0  0  0 
    5.2746   -1.7787   -0.2915 C   0  0  0  0  0  0  0  0  0  0  0  0 
    7.6991   -2.4607   -0.4702 C   0  0  0  0  0  0  0  0  0  0  0  0 
    6.2261   -2.6922   -0.7534 C   0  0  0  0  0  0  0  0  0  0  0  0 
    1.7705   -1.3157    0.3111 C   0  0  0  0  0  0  0  0  0  0  0  0 
    3.9170   -2.0012   -0.5270 C   0  0  0  0  0  0  0  0  0  0  0  0 
    8.0610   -1.0888   -0.3896 O   0  0  0  0  0  0  0  0  0  0  0  0 
    3.0539   -1.0099   -0.1034 O   0  0  0  0  0  0  0  0  0  0  0  0 
   -1.8532   -1.8897    1.5601 H   0  0  0  0  0  0  0  0  0  0  0  0 
   -0.0220   -3.4056    2.2931 H   0  0  0  0  0  0  0  0  0  0  0  0 
   -1.3421    0.0074    0.0314 H   0  0  0  0  0  0  0  0  0  0  0  0 
    4.1188   -4.9295   -2.2218 H   0  0  0  0  0  0  0  0  0  0  0  0 
    6.5364   -4.5435   -1.8191 H   0  0  0  0  0  0  0  0  0  0  0  0 
    2.3024   -3.0307    1.5036 H   0  0  0  0  0  0  0  0  0  0  0  0 
    0.9961    0.3647   -0.7697 H   0  0  0  0  0  0  0  0  0  0  0  0 
    2.4334   -3.2949   -1.4139 H   0  0  0  0  0  0  0  0  0  0  0  0 
    5.5835   -0.8887    0.2467 H   0  0  0  0  0  0  0  0  0  0  0  0 
    8.3059   -2.9937   -1.2200 H   0  0  0  0  0  0  0  0  0  0  0  0 
    7.9656   -2.8799    0.5076 H   0  0  0  0  0  0  0  0  0  0  0  0 
    7.7930   -0.6706   -1.2235 H   0  0  0  0  0  0  0  0  0  0  0  0 
  1 16  1  0  0  0  0 
  1  2  1  0  0  0  0 
  2 17  1  0  0  0  0 
  3  1  2  0  0  0  0 
  4  5  2  0  0  0  0 
  4  8  1  0  0  0  0 
  5 11  1  0  0  0  0 
  6 21  1  0  0  0  0 
  6  2  2  0  0  0  0 
  7 12  2  0  0  0  0 
  7  3  1  0  0  0  0 
  8 13  2  0  0  0  0 
  9 24  1  0  0  0  0 
 10 14  1  0  0  0  0 
 10 26  1  0  0  0  0 
 11 10  1  0  0  0  0 
 11  9  2  0  0  0  0 
 12  6  1  0  0  0  0 
 13  9  1  0  0  0  0 
 13 15  1  0  0  0  0 
 15 12  1  0  0  0  0 
 18  3  1  0  0  0  0 
 19  4  1  0  0  0  0 
 20  5  1  0  0  0  0 
 22  7  1  0  0  0  0 
 23  8  1  0  0  0  0 
 25 10  1  0  0  0  0 
 27 14  1  0  0  0  0 
M  END 
>  <HBA> 
2 
 
>  <HBD> 
1 
 
>  <TPSA> 
29.46 
 
>  <cid> 
26295 
 
>  <dipole> 
2.14 
 
>  <excitation_energy_1> 
4.687 
 
>  <excitation_energy_2> 
5.019 
 
>  <excitation_energy_3> 
5.053 
 
>  <excitation_energy_4> 
5.436 
 
>  <homo_energy> 
-5.924 
 
>  <homo_lumo_gap> 
5.611 
 
>  <logP> 
2.971 
 
>  <lumo_energy> 
-0.313 
 
>  <melting_point> 
64.2 
 
>  <molecular_refractivity> 
59.09 
 
>  <oscillator_strength_1> 
0.0186 
 
>  <oscillator_strength_2> 
0.2251 
 
>  <oscillator_strength_3> 
0.0111 
 
>  <oscillator_strength_4> 
0.0018 
 
>  <open_babel_can_smiles> 
OCc1cccc(c1)Oc1ccccc1 
 
>  <mulliken_charges> 
27 
1   -0.12782 
2   -0.138456 
3   -0.137797 
4   -0.137698 
5   -0.179634 
6   -0.16341 
7   -0.17101 
8   -0.171574 
9   -0.227933 
10   -0.088232 
11   0.093147 
12   0.343093 
13   0.353301 
14   -0.607388 
15   -0.575749 
16   0.130082 
17   0.134749 
18   0.134408 
19   0.134228 
20   0.122707 
21   0.148143 
22   0.141901 
23   0.14867 
24   0.153667 
25   0.131052 
26   0.167068 
27   0.390484 
 
>  <lowdin_charges> 
27 
1   -0.168741 
2   -0.147884 
3   -0.148964 
4   -0.145461 
5   -0.185064 
6   -0.187799 
7   -0.178466 
8   -0.193459 
9   -0.188655 
10   -0.132424 
11   -0.023354 
12   0.10171 
13   0.103264 
14   -0.459675 
15   -0.163221 
16   0.158013 
17   0.160466 
18   0.161336 
19   0.160297 
20   0.156751 
21   0.170701 
22   0.168748 
23   0.168711 
24   0.174982 
25   0.135495 
26   0.159115 
27   0.343577 
 
$$$$ 
 
