PCCDB-ID:  7664 
public computational chemistry database (PCCDB) project, http://pccdb.org 
 
 31 31  0  0  0  0  0  0  0  0999 V2000 
    0.9352   -1.0474    3.5317 C   0  0  0  0  0  0  0  0  0  0  0  0 
    2.4553   -0.8794    3.6065 C   0  0  0  0  0  0  0  0  0  0  0  0 
    9.7403   -6.5754    5.1322 C   0  0  0  0  0  0  0  0  0  0  0  0 
    9.7083   -5.3125    5.7243 C   0  0  0  0  0  0  0  0  0  0  0  0 
    9.1949   -6.7519    3.8569 C   0  0  0  0  0  0  0  0  0  0  0  0 
    7.2703   -3.2075    1.9652 C   0  0  0  0  0  0  0  0  0  0  0  0 
    3.1779   -1.5790    2.4533 C   0  0  0  0  0  0  0  0  0  0  0  0 
    9.1343   -4.2383    5.0465 C   0  0  0  0  0  0  0  0  0  0  0  0 
    8.6215   -5.6786    3.1817 C   0  0  0  0  0  0  0  0  0  0  0  0 
    7.9756   -3.2310    3.1063 C   0  0  0  0  0  0  0  0  0  0  0  0 
    6.7191   -1.9456    1.3757 C   0  0  0  0  0  0  0  0  0  0  0  0 
    8.5753   -4.3993    3.7667 C   0  0  0  0  0  0  0  0  0  0  0  0 
    4.6872   -1.4456    2.5250 C   0  0  0  0  0  0  0  0  0  0  0  0 
    5.3057   -0.9649    3.4502 O   0  0  0  0  0  0  0  0  0  0  0  0 
    5.2632   -1.9421    1.4025 O   0  0  0  0  0  0  0  0  0  0  0  0 
    0.4414   -0.5373    4.3661 H   0  0  0  0  0  0  0  0  0  0  0  0 
    0.6472   -2.1054    3.5723 H   0  0  0  0  0  0  0  0  0  0  0  0 
    0.5307   -0.6305    2.6010 H   0  0  0  0  0  0  0  0  0  0  0  0 
    2.8342   -1.2735    4.5563 H   0  0  0  0  0  0  0  0  0  0  0  0 
    2.7163    0.1859    3.5999 H   0  0  0  0  0  0  0  0  0  0  0  0 
   10.1899   -7.4148    5.6556 H   0  0  0  0  0  0  0  0  0  0  0  0 
   10.1316   -5.1623    6.7139 H   0  0  0  0  0  0  0  0  0  0  0  0 
    9.2217   -7.7306    3.3849 H   0  0  0  0  0  0  0  0  0  0  0  0 
    7.0538   -4.1231    1.4172 H   0  0  0  0  0  0  0  0  0  0  0  0 
    2.8448   -1.1955    1.4801 H   0  0  0  0  0  0  0  0  0  0  0  0 
    2.9439   -2.6531    2.4394 H   0  0  0  0  0  0  0  0  0  0  0  0 
    9.1108   -3.2561    5.5130 H   0  0  0  0  0  0  0  0  0  0  0  0 
    8.2148   -5.8330    2.1864 H   0  0  0  0  0  0  0  0  0  0  0  0 
    8.1202   -2.2850    3.6280 H   0  0  0  0  0  0  0  0  0  0  0  0 
    6.9598   -1.8609    0.3118 H   0  0  0  0  0  0  0  0  0  0  0  0 
    7.0862   -1.0649    1.9063 H   0  0  0  0  0  0  0  0  0  0  0  0 
  1 17  1  0  0  0  0 
  1  2  1  0  0  0  0 
  1 16  1  0  0  0  0 
  2 19  1  0  0  0  0 
  3 21  1  0  0  0  0 
  3  4  1  0  0  0  0 
  4 22  1  0  0  0  0 
  5  3  2  0  0  0  0 
  6 10  2  0  0  0  0 
  7 13  1  0  0  0  0 
  7  2  1  0  0  0  0 
  8 27  1  0  0  0  0 
  8  4  2  0  0  0  0 
  9 12  2  0  0  0  0 
  9  5  1  0  0  0  0 
 10 29  1  0  0  0  0 
 10 12  1  0  0  0  0 
 11 15  1  0  0  0  0 
 11 31  1  0  0  0  0 
 11  6  1  0  0  0  0 
 12  8  1  0  0  0  0 
 13 14  2  0  0  0  0 
 15 13  1  0  0  0  0 
 18  1  1  0  0  0  0 
 20  2  1  0  0  0  0 
 23  5  1  0  0  0  0 
 24  6  1  0  0  0  0 
 25  7  1  0  0  0  0 
 26  7  1  0  0  0  0 
 28  9  1  0  0  0  0 
 30 11  1  0  0  0  0 
M  END 
>  <HBA> 
2 
 
>  <HBD> 
0 
 
>  <TPSA> 
26.3 
 
>  <cid> 
7664 
 
>  <dipole> 
1.42 
 
>  <excitation_energy_1> 
4.693 
 
>  <excitation_energy_2> 
4.815 
 
>  <excitation_energy_3> 
5.571 
 
>  <excitation_energy_4> 
5.639 
 
>  <homo_energy> 
-6.085 
 
>  <homo_lumo_gap> 
5.078 
 
>  <logP> 
3.043 
 
>  <lumo_energy> 
-1.007 
 
>  <melting_point> 
35.96 
 
>  <molecular_refractivity> 
61.85 
 
>  <oscillator_strength_1> 
0.3928 
 
>  <oscillator_strength_2> 
0.1435 
 
>  <oscillator_strength_3> 
0.0043 
 
>  <oscillator_strength_4> 
0.0109 
 
>  <open_babel_can_smiles> 
CCCC(=O)OC/C=C/c1ccccc1 
 
>  <mulliken_charges> 
31 
1   -0.447058 
2   -0.243037 
3   -0.128021 
4   -0.129699 
5   -0.130064 
6   -0.126118 
7   -0.354405 
8   -0.19254 
9   -0.179581 
10   -0.156671 
11   -0.101241 
12   0.168827 
13   0.625086 
14   -0.478285 
15   -0.466681 
16   0.147614 
17   0.141956 
18   0.141549 
19   0.154919 
20   0.147808 
21   0.131401 
22   0.132546 
23   0.131218 
24   0.134309 
25   0.166624 
26   0.170251 
27   0.134943 
28   0.128799 
29   0.145199 
30   0.154621 
31   0.17573 
 
>  <lowdin_charges> 
31 
1   -0.444822 
2   -0.266962 
3   -0.155979 
4   -0.153288 
5   -0.153802 
6   -0.180914 
7   -0.299414 
8   -0.155749 
9   -0.152649 
10   -0.140474 
11   -0.125882 
12   -0.004618 
13   0.201462 
14   -0.26857 
15   -0.204108 
16   0.1536 
17   0.145232 
18   0.146537 
19   0.153335 
20   0.14806 
21   0.159808 
22   0.158449 
23   0.158008 
24   0.154237 
25   0.165142 
26   0.166093 
27   0.159009 
28   0.156443 
29   0.163203 
30   0.154939 
31   0.163675 
 
$$$$ 
 
