PCCDB-ID:  19229 
public computational chemistry database (PCCDB) project, http://pccdb.org 
 
 37 37  0  0  0  0  0  0  0  0999 V2000 
    3.2294   -0.5681   -1.2314 C   0  0  0  0  0  0  0  0  0  0  0  0 
    3.4864   -2.7668    1.9844 C   0  0  0  0  0  0  0  0  0  0  0  0 
    2.1238    1.5912    3.3278 C   0  0  0  0  0  0  0  0  0  0  0  0 
    2.5322   -0.4880    0.1379 C   0  0  0  0  0  0  0  0  0  0  0  0 
    4.2594   -1.5067    1.5935 C   0  0  0  0  0  0  0  0  0  0  0  0 
    4.5436    0.9968    5.8221 C   0  0  0  0  0  0  0  0  0  0  0  0 
    3.5440    3.1760    5.5853 C   0  0  0  0  0  0  0  0  0  0  0  0 
    4.8401    1.2797    7.1536 C   0  0  0  0  0  0  0  0  0  0  0  0 
    3.8222    3.4614    6.9187 C   0  0  0  0  0  0  0  0  0  0  0  0 
    4.1374    0.9070    1.3506 C   0  0  0  0  0  0  0  0  0  0  0  0 
    3.8920    1.9415    5.0250 C   0  0  0  0  0  0  0  0  0  0  0  0 
    4.4761    2.5109    7.7085 C   0  0  0  0  0  0  0  0  0  0  0  0 
    4.5528    1.2918    2.7796 C   0  0  0  0  0  0  0  0  0  0  0  0 
    3.5513    1.6561    3.6585 N   0  0  0  0  0  0  0  0  0  0  0  0 
    3.3915   -0.3526    1.3201 N   0  0  0  0  0  0  0  0  0  0  0  0 
    4.7342    2.8412    9.0111 O   0  0  0  0  0  0  0  0  0  0  0  0 
    5.7348    1.2660    3.1052 O   0  0  0  0  0  0  0  0  0  0  0  0 
    2.4796   -0.6375   -2.0282 H   0  0  0  0  0  0  0  0  0  0  0  0 
    3.8774   -1.4475   -1.3108 H   0  0  0  0  0  0  0  0  0  0  0  0 
    3.8414    0.3193   -1.4284 H   0  0  0  0  0  0  0  0  0  0  0  0 
    4.1862   -3.5537    2.2875 H   0  0  0  0  0  0  0  0  0  0  0  0 
    2.8878   -3.1649    1.1579 H   0  0  0  0  0  0  0  0  0  0  0  0 
    2.8132   -2.5606    2.8236 H   0  0  0  0  0  0  0  0  0  0  0  0 
    1.5767    2.2264    4.0264 H   0  0  0  0  0  0  0  0  0  0  0  0 
    1.7389    0.5679    3.3942 H   0  0  0  0  0  0  0  0  0  0  0  0 
    1.9359    1.9616    2.3176 H   0  0  0  0  0  0  0  0  0  0  0  0 
    1.9077   -1.3772    0.2783 H   0  0  0  0  0  0  0  0  0  0  0  0 
    1.8438    0.3675    0.1406 H   0  0  0  0  0  0  0  0  0  0  0  0 
    4.9292   -1.7279    0.7419 H   0  0  0  0  0  0  0  0  0  0  0  0 
    4.9176   -1.2231    2.4209 H   0  0  0  0  0  0  0  0  0  0  0  0 
    4.8322    0.0429    5.3955 H   0  0  0  0  0  0  0  0  0  0  0  0 
    3.0564    3.9252    4.9673 H   0  0  0  0  0  0  0  0  0  0  0  0 
    5.3536    0.5380    7.7630 H   0  0  0  0  0  0  0  0  0  0  0  0 
    3.5538    4.4172    7.3573 H   0  0  0  0  0  0  0  0  0  0  0  0 
    5.0770    0.8775    0.7772 H   0  0  0  0  0  0  0  0  0  0  0  0 
    3.5114    1.6929    0.9119 H   0  0  0  0  0  0  0  0  0  0  0  0 
    5.2072    2.1071    9.4328 H   0  0  0  0  0  0  0  0  0  0  0  0 
  1  4  1  0  0  0  0 
  2 21  1  0  0  0  0 
  2 23  1  0  0  0  0 
  3 25  1  0  0  0  0 
  3 14  1  0  0  0  0 
  3 24  1  0  0  0  0 
  4 28  1  0  0  0  0 
  4 27  1  0  0  0  0 
  4 15  1  0  0  0  0 
  5  2  1  0  0  0  0 
  5 30  1  0  0  0  0 
  6  8  2  0  0  0  0 
  7  9  1  0  0  0  0 
  8 12  1  0  0  0  0 
  8 33  1  0  0  0  0 
  9 34  1  0  0  0  0 
  9 12  2  0  0  0  0 
 10 13  1  0  0  0  0 
 11  7  2  0  0  0  0 
 11  6  1  0  0  0  0 
 12 16  1  0  0  0  0 
 13 17  2  0  0  0  0 
 13 14  1  0  0  0  0 
 14 11  1  0  0  0  0 
 15 10  1  0  0  0  0 
 15  5  1  0  0  0  0 
 16 37  1  0  0  0  0 
 18  1  1  0  0  0  0 
 19  1  1  0  0  0  0 
 20  1  1  0  0  0  0 
 22  2  1  0  0  0  0 
 26  3  1  0  0  0  0 
 29  5  1  0  0  0  0 
 31  6  1  0  0  0  0 
 32  7  1  0  0  0  0 
 35 10  1  0  0  0  0 
 36 10  1  0  0  0  0 
M  END 
>  <HBA> 
4 
 
>  <HBD> 
1 
 
>  <TPSA> 
43.78 
 
>  <cid> 
19229 
 
>  <dipole> 
3.0 
 
>  <excitation_energy_1> 
4.726 
 
>  <excitation_energy_2> 
4.856 
 
>  <excitation_energy_3> 
4.983 
 
>  <excitation_energy_4> 
5.031 
 
>  <homo_energy> 
-5.625 
 
>  <homo_lumo_gap> 
5.616 
 
>  <logP> 
1.697 
 
>  <lumo_energy> 
-0.008 
 
>  <melting_point> 
74.34 
 
>  <molecular_refractivity> 
69.8 
 
>  <oscillator_strength_1> 
0.024 
 
>  <oscillator_strength_2> 
0.0083 
 
>  <oscillator_strength_3> 
0.0089 
 
>  <oscillator_strength_4> 
0.0148 
 
>  <open_babel_can_smiles> 
CCN(CC(=O)N(c1ccc(cc1)O)C)CC 
 
>  <mulliken_charges> 
37 
1   -0.459177 
2   -0.453425 
3   -0.299812 
4   -0.134566 
5   -0.126634 
6   -0.118936 
7   -0.154502 
8   -0.212556 
9   -0.171956 
10   -0.224506 
11   0.27267 
12   0.359198 
13   0.578876 
14   -0.511911 
15   -0.383965 
16   -0.64452 
17   -0.509851 
18   0.144761 
19   0.153367 
20   0.151873 
21   0.146336 
22   0.146057 
23   0.152155 
24   0.161048 
25   0.173931 
26   0.15461 
27   0.144641 
28   0.133361 
29   0.120597 
30   0.164345 
31   0.145228 
32   0.133345 
33   0.121333 
34   0.140991 
35   0.152849 
36   0.147008 
37   0.407735 
 
>  <lowdin_charges> 
37 
1   -0.467256 
2   -0.452994 
3   -0.34691 
4   -0.204196 
5   -0.203428 
6   -0.136176 
7   -0.157123 
8   -0.212595 
9   -0.18524 
10   -0.226251 
11   0.034383 
12   0.104042 
13   0.148986 
14   -0.091107 
15   -0.188999 
16   -0.38117 
17   -0.303999 
18   0.154835 
19   0.152141 
20   0.151545 
21   0.15563 
22   0.148202 
23   0.153266 
24   0.161258 
25   0.156803 
26   0.153174 
27   0.146289 
28   0.139777 
29   0.123162 
30   0.157983 
31   0.169343 
32   0.162923 
33   0.156155 
34   0.168206 
35   0.146783 
36   0.153644 
37   0.358916 
 
$$$$ 
 
