PCCDB-ID:  41325 
public computational chemistry database (PCCDB) project, http://pccdb.org 
 
 36 37  0  0  1  0  0  0  0  0999 V2000 
    2.4470    0.2178    1.3495 C   0  0  0  0  0  0  0  0  0  0  0  0 
    5.2439   -3.4435    1.9483 C   0  0  0  0  0  0  0  0  0  0  0  0 
    4.5242   -3.5603    0.5983 C   0  0  0  0  0  0  0  0  0  0  0  0 
    6.0215   -2.1464    2.2251 C   0  0  0  0  0  0  0  0  0  0  0  0 
    3.3964   -2.5515    0.3104 C   0  0  0  0  0  0  0  0  0  0  0  0 
    5.1816   -0.9049    2.6256 C   0  0  0  0  0  0  0  0  0  0  0  0 
    5.0700    1.5932    2.2706 C   0  0  0  0  0  0  0  0  0  0  0  0 
    5.0663    2.7857    1.2966 C   0  0  0  0  0  0  0  0  0  0  0  0 
    3.8248   -1.1789   -0.2742 C   0  0  0  0  0  0  0  0  0  0  0  0 
    3.8781    1.2948   -0.4041 C   0  0  0  0  0  0  0  0  0  0  0  0 
    5.0269    0.2175    1.5651 C   0  0  2  0  0  0  0  0  0  0  0  0 
    3.9623    2.6573    0.2631 C   0  0  0  0  0  0  0  0  0  0  0  0 
    3.7953    0.1050    0.6053 C   0  0  1  0  0  0  0  0  0  0  0  0 
    3.2023    3.5686   -0.0087 O   0  0  0  0  0  0  0  0  0  0  0  0 
    1.6168    0.0546    0.6520 H   0  0  0  0  0  0  0  0  0  0  0  0 
    2.3027    1.2098    1.7901 H   0  0  0  0  0  0  0  0  0  0  0  0 
    2.3471   -0.5157    2.1551 H   0  0  0  0  0  0  0  0  0  0  0  0 
    5.9492   -4.2834    2.0173 H   0  0  0  0  0  0  0  0  0  0  0  0 
    4.5162   -3.5992    2.7590 H   0  0  0  0  0  0  0  0  0  0  0  0 
    4.0958   -4.5707    0.5476 H   0  0  0  0  0  0  0  0  0  0  0  0 
    5.2643   -3.5111   -0.2145 H   0  0  0  0  0  0  0  0  0  0  0  0 
    6.6585   -1.9071    1.3614 H   0  0  0  0  0  0  0  0  0  0  0  0 
    6.7162   -2.3599    3.0474 H   0  0  0  0  0  0  0  0  0  0  0  0 
    2.7809   -2.4257    1.2092 H   0  0  0  0  0  0  0  0  0  0  0  0 
    2.7305   -3.0184   -0.4257 H   0  0  0  0  0  0  0  0  0  0  0  0 
    5.6660   -0.4510    3.4988 H   0  0  0  0  0  0  0  0  0  0  0  0 
    4.1982   -1.2280    2.9887 H   0  0  0  0  0  0  0  0  0  0  0  0 
    4.2236    1.6828    2.9643 H   0  0  0  0  0  0  0  0  0  0  0  0 
    5.9737    1.6447    2.8898 H   0  0  0  0  0  0  0  0  0  0  0  0 
    6.0247    2.8044    0.7547 H   0  0  0  0  0  0  0  0  0  0  0  0 
    4.9608    3.7429    1.8159 H   0  0  0  0  0  0  0  0  0  0  0  0 
    3.1612   -0.9697   -1.1233 H   0  0  0  0  0  0  0  0  0  0  0  0 
    4.8296   -1.2721   -0.7110 H   0  0  0  0  0  0  0  0  0  0  0  0 
    4.7788    1.1661   -1.0245 H   0  0  0  0  0  0  0  0  0  0  0  0 
    3.0122    1.2966   -1.0740 H   0  0  0  0  0  0  0  0  0  0  0  0 
    5.9175    0.1715    0.9170 H   0  0  0  0  0  0  0  0  0  0  0  0 
  1 16  1  0  0  0  0 
  1 17  1  0  0  0  0 
  2 18  1  0  0  0  0 
  2  4  1  0  0  0  0 
  2 19  1  0  0  0  0 
  3  2  1  0  0  0  0 
  4  6  1  0  0  0  0 
  4 23  1  0  0  0  0 
  5  3  1  0  0  0  0 
  5 24  1  0  0  0  0 
  6 27  1  0  0  0  0 
  6 26  1  0  0  0  0 
  7 29  1  0  0  0  0 
  7 28  1  0  0  0  0 
  8 31  1  0  0  0  0 
  8  7  1  0  0  0  0 
  9  5  1  0  0  0  0 
  9 13  1  0  0  0  0 
 10 12  1  0  0  0  0 
 10 13  1  0  0  0  0 
 11 36  1  6  0  0  0 
 11  7  1  0  0  0  0 
 11  6  1  0  0  0  0 
 12  8  1  0  0  0  0 
 13  1  1  1  0  0  0 
 13 11  1  0  0  0  0 
 14 12  2  0  0  0  0 
 15  1  1  0  0  0  0 
 20  3  1  0  0  0  0 
 21  3  1  0  0  0  0 
 22  4  1  0  0  0  0 
 25  5  1  0  0  0  0 
 30  8  1  0  0  0  0 
 32  9  1  0  0  0  0 
 33  9  1  0  0  0  0 
 34 10  1  0  0  0  0 
 35 10  1  0  0  0  0 
M  END 
>  <HBA> 
1 
 
>  <HBD> 
0 
 
>  <TPSA> 
17.07 
 
>  <cid> 
41325 
 
>  <dipole> 
3.28 
 
>  <excitation_energy_1> 
4.196 
 
>  <excitation_energy_2> 
5.999 
 
>  <excitation_energy_3> 
6.233 
 
>  <excitation_energy_4> 
6.294 
 
>  <homo_energy> 
-6.299 
 
>  <homo_lumo_gap> 
6.03 
 
>  <logP> 
3.716 
 
>  <lumo_energy> 
-0.269 
 
>  <melting_point> 
54.02 
 
>  <molecular_refractivity> 
60.32 
 
>  <oscillator_strength_1> 
0.0 
 
>  <oscillator_strength_2> 
0.0094 
 
>  <oscillator_strength_3> 
0.0019 
 
>  <oscillator_strength_4> 
0.005 
 
>  <open_babel_can_smiles> 
O=C1CC[C@@H]2[C@](C1)(C)CCCCCC2 
 
>  <mulliken_charges> 
36 
1   -0.47254 
2   -0.256866 
3   -0.256624 
4   -0.261032 
5   -0.263759 
6   -0.278642 
7   -0.295847 
8   -0.344776 
9   -0.271073 
10   -0.356301 
11   -0.075678 
12   0.452278 
13   0.086739 
14   -0.453637 
15   0.147781 
16   0.155406 
17   0.149609 
18   0.128669 
19   0.127624 
20   0.129442 
21   0.127541 
22   0.129884 
23   0.133082 
24   0.134905 
25   0.134626 
26   0.134134 
27   0.136715 
28   0.147969 
29   0.140382 
30   0.152792 
31   0.160936 
32   0.132475 
33   0.126948 
34   0.147166 
35   0.156399 
36   0.113271 
 
>  <lowdin_charges> 
36 
1   -0.451916 
2   -0.278346 
3   -0.276995 
4   -0.282036 
5   -0.287092 
6   -0.28389 
7   -0.280044 
8   -0.308647 
9   -0.280466 
10   -0.308462 
11   -0.131219 
12   0.15673 
13   0.009108 
14   -0.23819 
15   0.155024 
16   0.153741 
17   0.150251 
18   0.143171 
19   0.137272 
20   0.142292 
21   0.137268 
22   0.139198 
23   0.145794 
24   0.14433 
25   0.148184 
26   0.147181 
27   0.143629 
28   0.146712 
29   0.14827 
30   0.159647 
31   0.162903 
32   0.145958 
33   0.139263 
34   0.157676 
35   0.16035 
36   0.133351 
 
$$$$ 
 
