PCCDB-ID:  61018 
public computational chemistry database (PCCDB) project, http://pccdb.org 
 
 23 22  0  0  1  0  0  0  0  0999 V2000 
    4.8240    2.0978    1.7779 C   0  0  0  0  0  0  0  0  0  0  0  0 
    2.1429   -1.5035    2.5325 C   0  0  0  0  0  0  0  0  0  0  0  0 
    4.2553   -2.8850    2.5526 C   0  0  0  0  0  0  0  0  0  0  0  0 
    4.2452    0.3969   -1.2199 C   0  0  0  0  0  0  0  0  0  0  0  0 
    4.3153    1.2418    1.0932 C   0  0  0  0  0  0  0  0  0  0  0  0 
    3.9343   -1.2049    0.7108 C   0  0  0  0  0  0  0  0  0  0  0  0 
    3.6403   -1.5225    2.1908 C   0  0  0  0  0  0  0  0  0  0  0  0 
    3.6867    0.2379    0.2091 C   0  0  2  0  0  0  0  0  0  0  0  0 
    2.2617    0.4366    0.1805 O   0  0  0  0  0  0  0  0  0  0  0  0 
    5.2731    2.8432    2.3946 H   0  0  0  0  0  0  0  0  0  0  0  0 
    1.9881   -1.7331    3.5940 H   0  0  0  0  0  0  0  0  0  0  0  0 
    1.6011   -2.2577    1.9463 H   0  0  0  0  0  0  0  0  0  0  0  0 
    1.6938   -0.5327    2.3142 H   0  0  0  0  0  0  0  0  0  0  0  0 
    4.0781   -3.1253    3.6075 H   0  0  0  0  0  0  0  0  0  0  0  0 
    5.3387   -2.9000    2.3820 H   0  0  0  0  0  0  0  0  0  0  0  0 
    3.8105   -3.6894    1.9519 H   0  0  0  0  0  0  0  0  0  0  0  0 
    5.3299    0.2518   -1.2421 H   0  0  0  0  0  0  0  0  0  0  0  0 
    4.0310    1.3998   -1.6068 H   0  0  0  0  0  0  0  0  0  0  0  0 
    3.7707   -0.3392   -1.8768 H   0  0  0  0  0  0  0  0  0  0  0  0 
    3.3402   -1.8641    0.0631 H   0  0  0  0  0  0  0  0  0  0  0  0 
    4.9895   -1.4299    0.5096 H   0  0  0  0  0  0  0  0  0  0  0  0 
    4.1409   -0.7564    2.7992 H   0  0  0  0  0  0  0  0  0  0  0  0 
    2.1077    1.3684   -0.0450 H   0  0  0  0  0  0  0  0  0  0  0  0 
  1 10  1  0  0  0  0 
  2 11  1  0  0  0  0 
  3 14  1  0  0  0  0 
  4  8  1  0  0  0  0 
  5  1  3  0  0  0  0 
  6  7  1  0  0  0  0 
  7  2  1  0  0  0  0 
  7  3  1  0  0  0  0 
  7 22  1  0  0  0  0 
  8  6  1  0  0  0  0 
  8  5  1  1  0  0  0 
  9  8  1  0  0  0  0 
 12  2  1  0  0  0  0 
 13  2  1  0  0  0  0 
 15  3  1  0  0  0  0 
 16  3  1  0  0  0  0 
 17  4  1  0  0  0  0 
 18  4  1  0  0  0  0 
 19  4  1  0  0  0  0 
 20  6  1  0  0  0  0 
 21  6  1  0  0  0  0 
 23  9  1  0  0  0  0 
M  END 
>  <HBA> 
1 
 
>  <HBD> 
1 
 
>  <TPSA> 
20.23 
 
>  <cid> 
61018 
 
>  <dipole> 
1.53 
 
>  <excitation_energy_1> 
6.285 
 
>  <excitation_energy_2> 
6.538 
 
>  <excitation_energy_3> 
6.682 
 
>  <excitation_energy_4> 
6.781 
 
>  <homo_energy> 
-7.157 
 
>  <homo_lumo_gap> 
8.139 
 
>  <logP> 
1.417 
 
>  <lumo_energy> 
0.982 
 
>  <melting_point> 
19.1 
 
>  <molecular_refractivity> 
39.93 
 
>  <oscillator_strength_1> 
0.0026 
 
>  <oscillator_strength_2> 
0.0256 
 
>  <oscillator_strength_3> 
0.0368 
 
>  <oscillator_strength_4> 
0.0117 
 
>  <open_babel_can_smiles> 
CC(C[C@](C#C)(O)C)C 
 
>  <mulliken_charges> 
23 
1   -0.510463 
2   -0.437618 
3   -0.444362 
4   -0.445919 
5   0.332096 
6   -0.25364 
7   -0.078677 
8   0.165659 
9   -0.619035 
10   0.192535 
11   0.127765 
12   0.131562 
13   0.168515 
14   0.140668 
15   0.136255 
16   0.137584 
17   0.153285 
18   0.141632 
19   0.158299 
20   0.143326 
21   0.134182 
22   0.135116 
23   0.391234 
 
>  <lowdin_charges> 
23 
1   -0.255337 
2   -0.448725 
3   -0.441784 
4   -0.444027 
5   -0.050974 
6   -0.271852 
7   -0.12268 
8   0.132547 
9   -0.443646 
10   0.207221 
11   0.140447 
12   0.144055 
13   0.161399 
14   0.147195 
15   0.142893 
16   0.145322 
17   0.156575 
18   0.15096 
19   0.160125 
20   0.153258 
21   0.148042 
22   0.145818 
23   0.343169 
 
$$$$ 
 
