PCCDB-ID:  58859 
public computational chemistry database (PCCDB) project, http://pccdb.org 
 
 15 15  0  0  0  0  0  0  0  0999 V2000 
   -0.6652   -0.1434    0.3546 C   0  0  0  0  0  0  0  0  0  0  0  0 
    0.1277   -1.2491    0.3556 C   0  0  0  0  0  0  0  0  0  0  0  0 
   -0.6734    2.3154   -0.1433 C   0  0  0  0  0  0  0  0  0  0  0  0 
    1.1147    3.8097   -0.9531 C   0  0  0  0  0  0  0  0  0  0  0  0 
   -1.1155    4.6723   -0.4981 C   0  0  0  0  0  0  0  0  0  0  0  0 
    1.3432    0.7835   -0.4036 C   0  0  0  0  0  0  0  0  0  0  0  0 
    0.0191    1.0495   -0.0827 C   0  0  0  0  0  0  0  0  0  0  0  0 
   -0.2243    3.5506   -0.5217 C   0  0  0  0  0  0  0  0  0  0  0  0 
    2.2074    4.0053   -1.3034 N   0  0  0  0  0  0  0  0  0  0  0  0 
   -1.8440    5.5794   -0.4768 N   0  0  0  0  0  0  0  0  0  0  0  0 
    1.7387   -0.8708   -0.1785 S   0  0  0  0  0  0  0  0  0  0  0  0 
   -1.7088   -0.1522    0.6508 H   0  0  0  0  0  0  0  0  0  0  0  0 
   -0.1294   -2.2615    0.6350 H   0  0  0  0  0  0  0  0  0  0  0  0 
   -1.7173    2.2794    0.1596 H   0  0  0  0  0  0  0  0  0  0  0  0 
    2.0966    1.4721   -0.7572 H   0  0  0  0  0  0  0  0  0  0  0  0 
  1  2  2  0  0  0  0 
  1 12  1  0  0  0  0 
  2 13  1  0  0  0  0 
  3  7  1  0  0  0  0 
  3 14  1  0  0  0  0 
  4  8  1  0  0  0  0 
  5 10  3  0  0  0  0 
  6 11  1  0  0  0  0 
  6  7  2  0  0  0  0 
  7  1  1  0  0  0  0 
  8  5  1  0  0  0  0 
  8  3  2  0  0  0  0 
  9  4  3  0  0  0  0 
 11  2  1  0  0  0  0 
 15  6  1  0  0  0  0 
M  END 
>  <HBA> 
3 
 
>  <HBD> 
0 
 
>  <TPSA> 
75.82 
 
>  <cid> 
58859 
 
>  <dipole> 
6.29 
 
>  <excitation_energy_1> 
3.85 
 
>  <excitation_energy_2> 
4.102 
 
>  <excitation_energy_3> 
5.404 
 
>  <excitation_energy_4> 
5.409 
 
>  <homo_energy> 
-6.963 
 
>  <homo_lumo_gap> 
4.082 
 
>  <logP> 
2.179 
 
>  <lumo_energy> 
-2.882 
 
>  <melting_point> 
95.96 
 
>  <molecular_refractivity> 
43.52 
 
>  <oscillator_strength_1> 
0.1853 
 
>  <oscillator_strength_2> 
0.3756 
 
>  <oscillator_strength_3> 
0.0004 
 
>  <oscillator_strength_4> 
0.0107 
 
>  <open_babel_can_smiles> 
N#CC(=Cc1cscc1)C#N 
 
>  <mulliken_charges> 
15 
1   -0.105672 
2   -0.360846 
3   -0.146523 
4   0.309314 
5   0.28466 
6   -0.394275 
7   0.159275 
8   0.12138 
9   -0.491368 
10   -0.461013 
11   0.323809 
12   0.160145 
13   0.192899 
14   0.18016 
15   0.228055 
 
>  <lowdin_charges> 
15 
1   -0.16809 
2   -0.312955 
3   -0.066994 
4   0.001701 
5   -0.007262 
6   -0.30254 
7   -0.040954 
8   -0.050681 
9   -0.10265 
10   -0.097775 
11   0.389146 
12   0.173071 
13   0.190993 
14   0.185013 
15   0.209975 
 
$$$$ 
 
