PCCDB-ID:  7202 
public computational chemistry database (PCCDB) project, http://pccdb.org 
 
 19 19  0  0  0  0  0  0  0  0999 V2000 
    0.8619   -0.5347   -0.1809 C   0  0  0  0  0  0  0  0  0  0  0  0 
    4.6346   -1.1478   -0.0128 C   0  0  0  0  0  0  0  0  0  0  0  0 
    5.1274    0.1530    0.0752 C   0  0  0  0  0  0  0  0  0  0  0  0 
    3.2565   -1.3584   -0.0997 C   0  0  0  0  0  0  0  0  0  0  0  0 
    4.2415    1.2299    0.0830 C   0  0  0  0  0  0  0  0  0  0  0  0 
    2.0657    3.0528    0.8028 C   0  0  0  0  0  0  0  0  0  0  0  0 
    2.3488   -0.2960   -0.0946 C   0  0  0  0  0  0  0  0  0  0  0  0 
    2.8561    1.0178    0.0138 C   0  0  0  0  0  0  0  0  0  0  0  0 
    1.9383    2.0900   -0.0138 N   0  0  0  0  0  0  0  0  0  0  0  0 
    1.2608    4.1306    0.7752 O   0  0  0  0  0  0  0  0  0  0  0  0 
    0.6456   -1.5833   -0.4079 H   0  0  0  0  0  0  0  0  0  0  0  0 
    0.4062    0.0936   -0.9541 H   0  0  0  0  0  0  0  0  0  0  0  0 
    0.3575   -0.2833    0.7609 H   0  0  0  0  0  0  0  0  0  0  0  0 
    5.3159   -1.9941   -0.0271 H   0  0  0  0  0  0  0  0  0  0  0  0 
    6.1978    0.3344    0.1252 H   0  0  0  0  0  0  0  0  0  0  0  0 
    2.8723   -2.3731   -0.1776 H   0  0  0  0  0  0  0  0  0  0  0  0 
    4.6192    2.2487    0.1107 H   0  0  0  0  0  0  0  0  0  0  0  0 
    2.8008    3.1306    1.6083 H   0  0  0  0  0  0  0  0  0  0  0  0 
    0.6402    3.9908    0.0344 H   0  0  0  0  0  0  0  0  0  0  0  0 
  1  7  1  0  0  0  0 
  1 13  1  0  0  0  0 
  2  3  2  0  0  0  0 
  3  5  1  0  0  0  0 
  3 15  1  0  0  0  0 
  4  7  2  0  0  0  0 
  4  2  1  0  0  0  0 
  5 17  1  0  0  0  0 
  6 18  1  0  0  0  0 
  7  8  1  0  0  0  0 
  8  5  2  0  0  0  0 
  9  8  1  0  0  0  0 
  9  6  2  0  0  0  0 
 10  6  1  0  0  0  0 
 11  1  1  0  0  0  0 
 12  1  1  0  0  0  0 
 14  2  1  0  0  0  0 
 16  4  1  0  0  0  0 
 19 10  1  0  0  0  0 
M  END 
>  <HBA> 
2 
 
>  <HBD> 
1 
 
>  <TPSA> 
29.1 
 
>  <cid> 
7202 
 
>  <dipole> 
0.31 
 
>  <excitation_energy_1> 
4.783 
 
>  <excitation_energy_2> 
4.953 
 
>  <excitation_energy_3> 
5.541 
 
>  <excitation_energy_4> 
5.712 
 
>  <homo_energy> 
-5.919 
 
>  <homo_lumo_gap> 
5.546 
 
>  <logP> 
2.272 
 
>  <lumo_energy> 
-0.373 
 
>  <melting_point> 
64.1 
 
>  <molecular_refractivity> 
41.3 
 
>  <oscillator_strength_1> 
0.1379 
 
>  <oscillator_strength_2> 
0.0272 
 
>  <oscillator_strength_3> 
0.0383 
 
>  <oscillator_strength_4> 
0.0999 
 
>  <open_babel_can_smiles> 
O/C=N/c1ccccc1C 
 
>  <mulliken_charges> 
19 
1   -0.517925 
2   -0.12216 
3   -0.14426 
4   -0.198357 
5   -0.157267 
6   0.284683 
7   0.154257 
8   0.202516 
9   -0.49095 
10   -0.551642 
11   0.146337 
12   0.16945 
13   0.158535 
14   0.125161 
15   0.127358 
16   0.121687 
17   0.125126 
18   0.156744 
19   0.410708 
 
>  <lowdin_charges> 
19 
1   -0.439948 
2   -0.167011 
3   -0.15662 
4   -0.163597 
5   -0.183908 
6   0.026571 
7   -0.009577 
8   0.034587 
9   -0.201326 
10   -0.348264 
11   0.151771 
12   0.16654 
13   0.159582 
14   0.157343 
15   0.155161 
16   0.153611 
17   0.155061 
18   0.149413 
19   0.360611 
 
$$$$ 
 
