PCCDB-ID:  7527 
public computational chemistry database (PCCDB) project, http://pccdb.org 
 
 21 22  0  0  1  0  0  0  0  0999 V2000 
    0.7861    1.4147   -0.3060 C   0  0  0  0  0  0  0  0  0  0  0  0 
    0.7857   -0.4423    1.3783 C   0  0  0  0  0  0  0  0  0  0  0  0 
    0.7860   -0.9723   -1.0720 C   0  0  0  0  0  0  0  0  0  0  0  0 
   -0.7756    1.3550   -0.2932 C   0  0  0  0  0  0  0  0  0  0  0  0 
   -0.7756   -0.4238    1.3199 C   0  0  0  0  0  0  0  0  0  0  0  0 
   -0.7754   -0.9311   -1.0273 C   0  0  0  0  0  0  0  0  0  0  0  0 
    1.3185   -0.0003    0.0004 C   0  0  1  0  0  0  0  0  0  0  0  0 
   -1.2712   -0.0003   -0.0001 N   0  0  2  0  0  0  0  0  0  0  0  0 
    1.1595    2.1263    0.4414 H   0  0  0  0  0  0  0  0  0  0  0  0 
    1.1595    1.7535   -1.2808 H   0  0  0  0  0  0  0  0  0  0  0  0 
    1.1595   -1.4453    1.6205 H   0  0  0  0  0  0  0  0  0  0  0  0 
    1.1589    0.2326    2.1589 H   0  0  0  0  0  0  0  0  0  0  0  0 
    1.1599   -0.6803   -2.0616 H   0  0  0  0  0  0  0  0  0  0  0  0 
    1.1594   -1.9859   -0.8781 H   0  0  0  0  0  0  0  0  0  0  0  0 
   -1.1902    1.6606   -1.2610 H   0  0  0  0  0  0  0  0  0  0  0  0 
   -1.1905    2.0332    0.4615 H   0  0  0  0  0  0  0  0  0  0  0  0 
   -1.1904    0.2617    2.0681 H   0  0  0  0  0  0  0  0  0  0  0  0 
   -1.1905   -1.4166    1.5299 H   0  0  0  0  0  0  0  0  0  0  0  0 
   -1.1904   -1.9221   -0.8089 H   0  0  0  0  0  0  0  0  0  0  0  0 
   -1.1898   -0.6160   -1.9921 H   0  0  0  0  0  0  0  0  0  0  0  0 
    2.4147   -0.0003    0.0005 H   0  0  0  0  0  0  0  0  0  0  0  0 
  1  4  1  0  0  0  0 
  1  7  1  0  0  0  0 
  1  9  1  0  0  0  0 
  2 11  1  0  0  0  0 
  2 12  1  0  0  0  0 
  3  6  1  0  0  0  0 
  3 14  1  0  0  0  0 
  3  7  1  0  0  0  0 
  4  8  1  0  0  0  0 
  4 16  1  0  0  0  0 
  5  2  1  0  0  0  0 
  5 18  1  0  0  0  0 
  5 17  1  0  0  0  0 
  6 19  1  0  0  0  0 
  7 21  1  1  0  0  0 
  7  2  1  0  0  0  0 
  8  6  1  6  0  0  0 
  8  5  1  0  0  0  0 
 10  1  1  0  0  0  0 
 13  3  1  0  0  0  0 
 15  4  1  0  0  0  0 
 20  6  1  0  0  0  0 
M  END 
>  <HBA> 
1 
 
>  <HBD> 
0 
 
>  <TPSA> 
3.24 
 
>  <cid> 
7527 
 
>  <dipole> 
1.02 
 
>  <excitation_energy_1> 
4.946 
 
>  <excitation_energy_2> 
5.529 
 
>  <excitation_energy_3> 
5.53 
 
>  <excitation_energy_4> 
5.597 
 
>  <homo_energy> 
-5.456 
 
>  <homo_lumo_gap> 
7.35 
 
>  <logP> 
1.04 
 
>  <lumo_energy> 
1.894 
 
>  <melting_point> 
20.57 
 
>  <molecular_refractivity> 
38.35 
 
>  <oscillator_strength_1> 
0.007 
 
>  <oscillator_strength_2> 
0.0306 
 
>  <oscillator_strength_3> 
0.0306 
 
>  <oscillator_strength_4> 
0.0069 
 
>  <open_babel_can_smiles> 
C1CN2CC[C@H]1CC2 
 
>  <mulliken_charges> 
21 
1   -0.279286 
2   -0.279279 
3   -0.279356 
4   -0.143659 
5   -0.143296 
6   -0.143467 
7   -0.093474 
8   -0.372482 
9   0.130512 
10   0.130534 
11   0.130551 
12   0.130539 
13   0.130559 
14   0.130526 
15   0.138415 
16   0.138376 
17   0.138378 
18   0.138327 
19   0.138356 
20   0.138394 
21   0.120831 
 
>  <lowdin_charges> 
21 
1   -0.303245 
2   -0.302704 
3   -0.300877 
4   -0.2123 
5   -0.212001 
6   -0.211192 
7   -0.125585 
8   -0.185632 
9   0.14294 
10   0.141719 
11   0.141335 
12   0.14291 
13   0.141431 
14   0.14109 
15   0.143538 
16   0.144852 
17   0.144851 
18   0.143159 
19   0.14312 
20   0.143484 
21   0.139106 
 
$$$$ 
 
