PCCDB-ID:  22209 
public computational chemistry database (PCCDB) project, http://pccdb.org 
 
 40 40  0  0  1  0  0  0  0  0999 V2000 
   11.1980    5.8838   -1.6486 C   0  0  0  0  0  0  0  0  0  0  0  0 
    9.7781    5.3695   -1.3904 C   0  0  0  0  0  0  0  0  0  0  0  0 
    9.6743    3.8385   -1.3999 C   0  0  0  0  0  0  0  0  0  0  0  0 
    8.2534    3.3247   -1.1289 C   0  0  0  0  0  0  0  0  0  0  0  0 
    8.1200    1.7936   -1.0628 C   0  0  0  0  0  0  0  0  0  0  0  0 
    8.3901    1.0018   -2.3577 C   0  0  0  0  0  0  0  0  0  0  0  0 
    7.4212    1.2854   -3.5278 C   0  0  0  0  0  0  0  0  0  0  0  0 
    7.9098    2.3520   -4.5194 C   0  0  0  0  0  0  0  0  0  0  0  0 
    6.9155    2.6271   -5.6706 C   0  0  0  0  0  0  0  0  0  0  0  0 
    5.6171    3.2460   -5.2163 C   0  0  1  0  0  0  0  0  0  0  0  0 
    3.3374    3.1821   -4.7986 C   0  0  0  0  0  0  0  0  0  0  0  0 
    4.5805    5.2644   -4.2947 C   0  0  0  0  0  0  0  0  0  0  0  0 
    2.1904    2.6207   -4.7781 N   0  0  0  0  0  0  0  0  0  0  0  0 
    4.5597    6.4683   -3.8666 N   0  0  0  0  0  0  0  0  0  0  0  0 
    4.5188    2.5688   -5.2470 N   0  0  0  0  0  0  0  0  0  0  0  0 
    5.6965    4.5487   -4.7627 N   0  0  0  0  0  0  0  0  0  0  0  0 
    3.4359    4.5035   -4.3432 N   0  0  0  0  0  0  0  0  0  0  0  0 
   11.2363    6.9790   -1.6362 H   0  0  0  0  0  0  0  0  0  0  0  0 
   11.5720    5.5479   -2.6239 H   0  0  0  0  0  0  0  0  0  0  0  0 
   11.8954    5.5179   -0.8853 H   0  0  0  0  0  0  0  0  0  0  0  0 
    9.0954    5.7843   -2.1471 H   0  0  0  0  0  0  0  0  0  0  0  0 
    9.4204    5.7506   -0.4237 H   0  0  0  0  0  0  0  0  0  0  0  0 
   10.3565    3.4255   -0.6419 H   0  0  0  0  0  0  0  0  0  0  0  0 
   10.0379    3.4623   -2.3669 H   0  0  0  0  0  0  0  0  0  0  0  0 
    7.5625    3.7284   -1.8830 H   0  0  0  0  0  0  0  0  0  0  0  0 
    7.9104    3.7381   -0.1699 H   0  0  0  0  0  0  0  0  0  0  0  0 
    7.1048    1.5486   -0.7204 H   0  0  0  0  0  0  0  0  0  0  0  0 
    8.7987    1.4189   -0.2831 H   0  0  0  0  0  0  0  0  0  0  0  0 
    8.3214   -0.0630   -2.1010 H   0  0  0  0  0  0  0  0  0  0  0  0 
    9.4263    1.1565   -2.6902 H   0  0  0  0  0  0  0  0  0  0  0  0 
    6.4364    1.5653   -3.1300 H   0  0  0  0  0  0  0  0  0  0  0  0 
    7.2552    0.3595   -4.0943 H   0  0  0  0  0  0  0  0  0  0  0  0 
    8.8560    2.0205   -4.9665 H   0  0  0  0  0  0  0  0  0  0  0  0 
    8.1380    3.2889   -3.9951 H   0  0  0  0  0  0  0  0  0  0  0  0 
    6.6610    1.6951   -6.1819 H   0  0  0  0  0  0  0  0  0  0  0  0 
    7.3864    3.2925   -6.4078 H   0  0  0  0  0  0  0  0  0  0  0  0 
    2.2929    1.6715   -5.1407 H   0  0  0  0  0  0  0  0  0  0  0  0 
    5.4856    6.8960   -3.8912 H   0  0  0  0  0  0  0  0  0  0  0  0 
    6.5865    5.0265   -4.7692 H   0  0  0  0  0  0  0  0  0  0  0  0 
    2.5842    4.9474   -4.0245 H   0  0  0  0  0  0  0  0  0  0  0  0 
  1 18  1  0  0  0  0 
  1  2  1  0  0  0  0 
  1 20  1  0  0  0  0 
  2 22  1  0  0  0  0 
  3  2  1  0  0  0  0 
  3  4  1  0  0  0  0 
  3 23  1  0  0  0  0 
  4  5  1  0  0  0  0 
  4 26  1  0  0  0  0 
  5 27  1  0  0  0  0 
  5 28  1  0  0  0  0 
  6 29  1  0  0  0  0 
  6  5  1  0  0  0  0 
  7 31  1  0  0  0  0 
  7  6  1  0  0  0  0 
  8 34  1  0  0  0  0 
  8  7  1  0  0  0  0 
  9  8  1  0  0  0  0 
 10  9  1  1  0  0  0 
 10 16  1  0  0  0  0 
 11 13  1  0  0  0  0 
 11 17  1  0  0  0  0 
 12 14  2  0  0  0  0 
 15 10  1  0  0  0  0 
 15 11  2  0  0  0  0 
 16 12  1  0  0  0  0 
 17 12  1  0  0  0  0 
 17 40  1  0  0  0  0 
 19  1  1  0  0  0  0 
 21  2  1  0  0  0  0 
 24  3  1  0  0  0  0 
 25  4  1  0  0  0  0 
 30  6  1  0  0  0  0 
 32  7  1  0  0  0  0 
 33  8  1  0  0  0  0 
 35  9  1  0  0  0  0 
 36  9  1  0  0  0  0 
 37 13  1  0  0  0  0 
 38 14  1  0  0  0  0 
 39 16  1  0  0  0  0 
M  RAD  2  10   2  13   2 
M  END 
>  <HBA> 
5 
 
>  <HBD> 
2 
 
>  <TPSA> 
90.71 
 
>  <cid> 
22209 
 
>  <dipole> 
5.79 
 
>  <excitation_energy_1> 
4.812 
 
>  <excitation_energy_2> 
5.122 
 
>  <excitation_energy_3> 
5.264 
 
>  <excitation_energy_4> 
5.349 
 
>  <homo_energy> 
-6.275 
 
>  <homo_lumo_gap> 
5.475 
 
>  <logP> 
3.491 
 
>  <lumo_energy> 
-0.8 
 
>  <melting_point> 
148.67 
 
>  <molecular_refractivity> 
72.06 
 
>  <oscillator_strength_1> 
0.0276 
 
>  <oscillator_strength_2> 
0.0787 
 
>  <oscillator_strength_3> 
0.0069 
 
>  <oscillator_strength_4> 
0.0018 
 
>  <open_babel_can_smiles> 
CCCCCCCCC[C]1NC(=N)NC(=N1)[NH] 
 
>  <mulliken_charges> 
40 
1   -0.441939 
2   -0.244957 
3   -0.249704 
4   -0.256753 
5   -0.260612 
6   -0.265305 
7   -0.256036 
8   -0.276008 
9   -0.355641 
10   0.529584 
11   0.601632 
12   0.689573 
13   -0.646752 
14   -0.646368 
15   -0.505559 
16   -0.682381 
17   -0.643467 
18   0.144049 
19   0.138628 
20   0.145305 
21   0.114933 
22   0.136802 
23   0.130565 
24   0.127398 
25   0.123183 
26   0.134437 
27   0.13477 
28   0.129742 
29   0.137173 
30   0.132575 
31   0.15118 
32   0.139961 
33   0.148032 
34   0.136689 
35   0.184778 
36   0.153031 
37   0.295437 
38   0.274903 
39   0.338831 
40   0.358292 
 
>  <lowdin_charges> 
40 
1   -0.443494 
2   -0.271883 
3   -0.280511 
4   -0.280822 
5   -0.275956 
6   -0.277825 
7   -0.279638 
8   -0.275272 
9   -0.28694 
10   0.125491 
11   0.117355 
12   0.13487 
13   -0.42378 
14   -0.453917 
15   -0.22502 
16   -0.25344 
17   -0.233965 
18   0.148385 
19   0.144626 
20   0.149407 
21   0.131982 
22   0.141778 
23   0.141122 
24   0.135146 
25   0.134759 
26   0.14441 
27   0.142605 
28   0.142381 
29   0.146482 
30   0.138367 
31   0.148613 
32   0.147911 
33   0.149571 
34   0.139209 
35   0.175859 
36   0.15887 
37   0.262522 
38   0.253126 
39   0.295186 
40   0.31243 
 
$$$$ 
 
