PCCDB-ID:  10338 
public computational chemistry database (PCCDB) project, http://pccdb.org 
 
 14 13  0  0  1  0  0  0  0  0999 V2000 
    2.9376   -0.7427   -0.9521 C   0  0  0  0  0  0  0  0  0  0  0  0 
    2.2394   -0.0106   -0.0836 C   0  0  0  0  0  0  0  0  0  0  0  0 
    2.4794    0.3701    2.3803 C   0  0  0  0  0  0  0  0  0  0  0  0 
    2.8535    0.8824    0.9760 C   0  0  1  0  0  0  0  0  0  0  0  0 
    3.1688   -0.8503    2.6456 O   0  0  0  0  0  0  0  0  0  0  0  0 
    4.2646    0.9659    0.8793 O   0  0  0  0  0  0  0  0  0  0  0  0 
    2.4507   -1.3823   -1.6829 H   0  0  0  0  0  0  0  0  0  0  0  0 
    4.0222   -0.6905   -0.9735 H   0  0  0  0  0  0  0  0  0  0  0  0 
    1.1482   -0.0469   -0.0890 H   0  0  0  0  0  0  0  0  0  0  0  0 
    1.3902    0.2542    2.4845 H   0  0  0  0  0  0  0  0  0  0  0  0 
    2.8281    1.0781    3.1371 H   0  0  0  0  0  0  0  0  0  0  0  0 
    2.4608    1.9022    0.8560 H   0  0  0  0  0  0  0  0  0  0  0  0 
    2.8721   -1.4921    1.9770 H   0  0  0  0  0  0  0  0  0  0  0  0 
    4.5956    0.2095    1.3979 H   0  0  0  0  0  0  0  0  0  0  0  0 
  1  2  2  0  0  0  0 
  2  4  1  0  0  0  0 
  3 10  1  0  0  0  0 
  3  5  1  0  0  0  0 
  3 11  1  0  0  0  0 
  4 12  1  6  0  0  0 
  4  3  1  0  0  0  0 
  6  4  1  0  0  0  0 
  6 14  1  0  0  0  0 
  7  1  1  0  0  0  0 
  8  1  1  0  0  0  0 
  9  2  1  0  0  0  0 
 13  5  1  0  0  0  0 
M  END 
>  <HBA> 
2 
 
>  <HBD> 
2 
 
>  <TPSA> 
40.46 
 
>  <cid> 
10338 
 
>  <dipole> 
2.09 
 
>  <excitation_energy_1> 
6.267 
 
>  <excitation_energy_2> 
6.484 
 
>  <excitation_energy_3> 
6.662 
 
>  <excitation_energy_4> 
6.841 
 
>  <homo_energy> 
-7.178 
 
>  <homo_lumo_gap> 
7.448 
 
>  <logP> 
-0.474 
 
>  <lumo_energy> 
0.269 
 
>  <melting_point> 
-8.6 
 
>  <molecular_refractivity> 
23.19 
 
>  <oscillator_strength_1> 
0.0103 
 
>  <oscillator_strength_2> 
0.036 
 
>  <oscillator_strength_3> 
0.0128 
 
>  <oscillator_strength_4> 
0.1427 
 
>  <open_babel_can_smiles> 
O[C@@H](C=C)CO 
 
>  <mulliken_charges> 
14 
1   -0.337721 
2   -0.102311 
3   -0.067991 
4   0.094965 
5   -0.62053 
6   -0.628814 
7   0.143101 
8   0.158153 
9   0.127267 
10   0.130151 
11   0.164584 
12   0.144802 
13   0.395026 
14   0.399319 
 
>  <lowdin_charges> 
14 
1   -0.334369 
2   -0.179842 
3   -0.150235 
4   -0.019094 
5   -0.465878 
6   -0.457734 
7   0.161964 
8   0.164882 
9   0.149781 
10   0.132583 
11   0.158034 
12   0.15094 
13   0.345506 
14   0.343461 
 
$$$$ 
 
