PCCDB-ID:  17016 
public computational chemistry database (PCCDB) project, http://pccdb.org 
 
 22 22  0  0  0  0  0  0  0  0999 V2000 
    0.9168    0.1492   -0.0457 C   0  0  0  0  0  0  0  0  0  0  0  0 
    6.7721    0.0750    0.1737 C   0  0  0  0  0  0  0  0  0  0  0  0 
    2.4339   -2.4673    0.0931 C   0  0  0  0  0  0  0  0  0  0  0  0 
    3.1547    1.2980   -0.0008 C   0  0  0  0  0  0  0  0  0  0  0  0 
    4.5458    1.2949    0.0499 C   0  0  0  0  0  0  0  0  0  0  0  0 
    2.4284    0.1003    0.0120 C   0  0  0  0  0  0  0  0  0  0  0  0 
    5.2622    0.0982    0.1159 C   0  0  0  0  0  0  0  0  0  0  0  0 
    3.1220   -1.1225    0.0762 C   0  0  0  0  0  0  0  0  0  0  0  0 
    4.5254   -1.0973    0.1256 C   0  0  0  0  0  0  0  0  0  0  0  0 
    5.1472   -2.3224    0.1877 O   0  0  0  0  0  0  0  0  0  0  0  0 
    0.5671    1.1848   -0.0980 H   0  0  0  0  0  0  0  0  0  0  0  0 
    0.4558   -0.3100    0.8377 H   0  0  0  0  0  0  0  0  0  0  0  0 
    0.5212   -0.3772   -0.9232 H   0  0  0  0  0  0  0  0  0  0  0  0 
    7.1748    1.0918    0.1656 H   0  0  0  0  0  0  0  0  0  0  0  0 
    7.2161   -0.4510   -0.6846 H   0  0  0  0  0  0  0  0  0  0  0  0 
    7.1478   -0.4102    1.0867 H   0  0  0  0  0  0  0  0  0  0  0  0 
    1.3465   -2.3731    0.0750 H   0  0  0  0  0  0  0  0  0  0  0  0 
    2.7119   -3.0402    0.9859 H   0  0  0  0  0  0  0  0  0  0  0  0 
    2.7372   -3.0758   -0.7677 H   0  0  0  0  0  0  0  0  0  0  0  0 
    2.6211    2.2436   -0.0514 H   0  0  0  0  0  0  0  0  0  0  0  0 
    5.0902    2.2366    0.0396 H   0  0  0  0  0  0  0  0  0  0  0  0 
    6.1065   -2.1894    0.2031 H   0  0  0  0  0  0  0  0  0  0  0  0 
  1  6  1  0  0  0  0 
  1 12  1  0  0  0  0 
  2 16  1  0  0  0  0 
  3 18  1  0  0  0  0 
  4  6  2  0  0  0  0 
  4  5  1  0  0  0  0 
  5  7  2  0  0  0  0 
  6  8  1  0  0  0  0 
  7  9  1  0  0  0  0 
  7  2  1  0  0  0  0 
  8  3  1  0  0  0  0 
  8  9  2  0  0  0  0 
  9 10  1  0  0  0  0 
 10 22  1  0  0  0  0 
 11  1  1  0  0  0  0 
 13  1  1  0  0  0  0 
 14  2  1  0  0  0  0 
 15  2  1  0  0  0  0 
 17  3  1  0  0  0  0 
 19  3  1  0  0  0  0 
 20  4  1  0  0  0  0 
 21  5  1  0  0  0  0 
M  END 
>  <HBA> 
1 
 
>  <HBD> 
1 
 
>  <TPSA> 
20.23 
 
>  <cid> 
17016 
 
>  <dipole> 
1.2 
 
>  <excitation_energy_1> 
4.986 
 
>  <excitation_energy_2> 
5.001 
 
>  <excitation_energy_3> 
5.493 
 
>  <excitation_energy_4> 
5.626 
 
>  <homo_energy> 
-5.638 
 
>  <homo_lumo_gap> 
5.929 
 
>  <logP> 
2.317 
 
>  <lumo_energy> 
0.291 
 
>  <melting_point> 
57.8 
 
>  <molecular_refractivity> 
43.36 
 
>  <oscillator_strength_1> 
0.0034 
 
>  <oscillator_strength_2> 
0.0317 
 
>  <oscillator_strength_3> 
0.0002 
 
>  <oscillator_strength_4> 
0.0026 
 
>  <open_babel_can_smiles> 
Cc1ccc(c(c1O)C)C 
 
>  <mulliken_charges> 
22 
1   -0.538216 
2   -0.580287 
3   -0.514951 
4   -0.184479 
5   -0.198895 
6   0.122525 
7   0.170621 
8   0.084229 
9   0.209386 
10   -0.649713 
11   0.152514 
12   0.16007 
13   0.159986 
14   0.169752 
15   0.158817 
16   0.159255 
17   0.146674 
18   0.165333 
19   0.164528 
20   0.113301 
21   0.116138 
22   0.413411 
 
>  <lowdin_charges> 
22 
1   -0.443711 
2   -0.454247 
3   -0.440316 
4   -0.190626 
5   -0.164785 
6   -0.003645 
7   -0.055017 
8   -0.037541 
9   0.085718 
10   -0.384282 
11   0.15482 
12   0.158763 
13   0.158793 
14   0.166393 
15   0.15467 
16   0.154549 
17   0.153616 
18   0.163685 
19   0.163413 
20   0.151842 
21   0.152561 
22   0.355347 
 
$$$$ 
 
