PCCDB-ID:  48385 
public computational chemistry database (PCCDB) project, http://pccdb.org 
 
 38 38  0  0  1  0  0  0  0  0999 V2000 
    1.2329    0.6335    1.1817 C   0  0  0  0  0  0  0  0  0  0  0  0 
    4.6401    3.7606   -4.3746 C   0  0  0  0  0  0  0  0  0  0  0  0 
    3.0421    1.2671   -4.4727 C   0  0  0  0  0  0  0  0  0  0  0  0 
    2.3258   -0.0787    1.9649 C   0  0  0  0  0  0  0  0  0  0  0  0 
    5.6942    2.8755   -2.2583 C   0  0  0  0  0  0  0  0  0  0  0  0 
    5.8535    1.9111   -1.2629 C   0  0  0  0  0  0  0  0  0  0  0  0 
    6.0259   -1.5949   -0.8119 C   0  0  0  0  0  0  0  0  0  0  0  0 
    6.4505   -2.6092    0.2561 C   0  0  0  0  0  0  0  0  0  0  0  0 
    4.2077    0.5484   -2.3579 C   0  0  0  0  0  0  0  0  0  0  0  0 
    4.7940    2.6975   -3.3128 C   0  0  0  0  0  0  0  0  0  0  0  0 
    4.0346    1.5079   -3.3593 C   0  0  0  0  0  0  0  0  0  0  0  0 
    5.1131    0.7280   -1.3031 C   0  0  0  0  0  0  0  0  0  0  0  0 
    5.3136   -0.3509   -0.2423 C   0  0  1  0  0  0  0  0  0  0  0  0 
    3.9632   -0.7266    0.3594 C   0  0  0  0  0  0  0  0  0  0  0  0 
    7.3734   -2.0014    1.2252 N   0  0  0  0  0  0  0  0  0  0  0  0 
    3.2616   -1.6459   -0.0169 O   0  0  0  0  0  0  0  0  0  0  0  0 
    3.6233    0.1188    1.3555 O   0  0  0  0  0  0  0  0  0  0  0  0 
    0.2739    0.5312    1.7031 H   0  0  0  0  0  0  0  0  0  0  0  0 
    1.1293    0.1990    0.1835 H   0  0  0  0  0  0  0  0  0  0  0  0 
    1.4594    1.6998    1.0803 H   0  0  0  0  0  0  0  0  0  0  0  0 
    5.3018    4.6105   -4.1811 H   0  0  0  0  0  0  0  0  0  0  0  0 
    3.6119    4.1430   -4.4230 H   0  0  0  0  0  0  0  0  0  0  0  0 
    4.8768    3.3747   -5.3750 H   0  0  0  0  0  0  0  0  0  0  0  0 
    2.5394    0.3029   -4.3514 H   0  0  0  0  0  0  0  0  0  0  0  0 
    3.5271    1.2694   -5.4579 H   0  0  0  0  0  0  0  0  0  0  0  0 
    2.2688    2.0459   -4.5034 H   0  0  0  0  0  0  0  0  0  0  0  0 
    2.1282   -1.1512    2.0354 H   0  0  0  0  0  0  0  0  0  0  0  0 
    2.4337    0.3375    2.9697 H   0  0  0  0  0  0  0  0  0  0  0  0 
    6.2814    3.7903   -2.2138 H   0  0  0  0  0  0  0  0  0  0  0  0 
    6.5587    2.0802   -0.4526 H   0  0  0  0  0  0  0  0  0  0  0  0 
    5.3688   -2.0926   -1.5329 H   0  0  0  0  0  0  0  0  0  0  0  0 
    6.9112   -1.2548   -1.3660 H   0  0  0  0  0  0  0  0  0  0  0  0 
    6.8630   -3.4984   -0.2533 H   0  0  0  0  0  0  0  0  0  0  0  0 
    5.5642   -2.9483    0.8043 H   0  0  0  0  0  0  0  0  0  0  0  0 
    3.6135   -0.3620   -2.3950 H   0  0  0  0  0  0  0  0  0  0  0  0 
    5.9262    0.0610    0.5640 H   0  0  0  0  0  0  0  0  0  0  0  0 
    8.2743   -1.8315    0.7788 H   0  0  0  0  0  0  0  0  0  0  0  0 
    7.5546   -2.6527    1.9868 H   0  0  0  0  0  0  0  0  0  0  0  0 
  1 18  1  0  0  0  0 
  1  4  1  0  0  0  0 
  2 21  1  0  0  0  0 
  2 10  1  0  0  0  0 
  3 24  1  0  0  0  0 
  3 11  1  0  0  0  0 
  4 27  1  0  0  0  0 
  4 28  1  0  0  0  0 
  5 29  1  0  0  0  0 
  5  6  2  0  0  0  0 
  6 30  1  0  0  0  0 
  7 13  1  0  0  0  0 
  7  8  1  0  0  0  0 
  8 34  1  0  0  0  0 
  8 15  1  0  0  0  0 
  9 12  2  0  0  0  0 
 10  5  1  0  0  0  0 
 11 10  2  0  0  0  0 
 11  9  1  0  0  0  0 
 12  6  1  0  0  0  0 
 12 13  1  0  0  0  0 
 13 14  1  0  0  0  0 
 13 36  1  1  0  0  0 
 14 17  1  0  0  0  0 
 15 38  1  0  0  0  0 
 16 14  2  0  0  0  0 
 17  4  1  0  0  0  0 
 19  1  1  0  0  0  0 
 20  1  1  0  0  0  0 
 22  2  1  0  0  0  0 
 23  2  1  0  0  0  0 
 25  3  1  0  0  0  0 
 26  3  1  0  0  0  0 
 31  7  1  0  0  0  0 
 32  7  1  0  0  0  0 
 33  8  1  0  0  0  0 
 35  9  1  0  0  0  0 
 37 15  1  0  0  0  0 
M  END 
>  <HBA> 
3 
 
>  <HBD> 
1 
 
>  <TPSA> 
52.32 
 
>  <cid> 
48385 
 
>  <dipole> 
0.89 
 
>  <excitation_energy_1> 
5.109 
 
>  <excitation_energy_2> 
5.364 
 
>  <excitation_energy_3> 
5.57 
 
>  <excitation_energy_4> 
5.625 
 
>  <homo_energy> 
-6.057 
 
>  <homo_lumo_gap> 
6.068 
 
>  <logP> 
2.999 
 
>  <lumo_energy> 
0.011 
 
>  <melting_point> 
80.2 
 
>  <molecular_refractivity> 
69.37 
 
>  <oscillator_strength_1> 
0.001 
 
>  <oscillator_strength_2> 
0.0991 
 
>  <oscillator_strength_3> 
0.003 
 
>  <oscillator_strength_4> 
0.0087 
 
>  <open_babel_can_smiles> 
NCC[C@@H](c1ccc(c(c1)C)C)C(=O)OCC 
 
>  <mulliken_charges> 
38 
1   -0.460398 
2   -0.532448 
3   -0.533528 
4   -0.045451 
5   -0.18714 
6   -0.191376 
7   -0.251987 
8   -0.154575 
9   -0.249552 
10   0.133219 
11   0.13537 
12   0.163965 
13   -0.24572 
14   0.63975 
15   -0.715178 
16   -0.501948 
17   -0.461252 
18   0.146642 
19   0.174559 
20   0.160245 
21   0.153468 
22   0.158228 
23   0.158062 
24   0.158251 
25   0.157513 
26   0.157625 
27   0.167182 
28   0.151142 
29   0.118727 
30   0.125473 
31   0.155943 
32   0.130965 
33   0.116804 
34   0.156371 
35   0.141169 
36   0.17874 
37   0.292334 
38   0.298805 
 
>  <lowdin_charges> 
38 
1   -0.452507 
2   -0.440384 
3   -0.441553 
4   -0.125304 
5   -0.166516 
6   -0.17022 
7   -0.27761 
8   -0.211065 
9   -0.17771 
10   -0.011143 
11   -0.005611 
12   -0.002773 
13   -0.149299 
14   0.204135 
15   -0.560957 
16   -0.283534 
17   -0.18618 
18   0.156731 
19   0.164082 
20   0.156072 
21   0.156855 
22   0.156713 
23   0.156913 
24   0.158378 
25   0.15691 
26   0.157929 
27   0.155198 
28   0.150702 
29   0.15273 
30   0.156518 
31   0.159238 
32   0.145092 
33   0.123263 
34   0.149799 
35   0.161693 
36   0.175473 
37   0.250794 
38   0.257149 
 
$$$$ 
 
