PCCDB-ID:  57118 
public computational chemistry database (PCCDB) project, http://pccdb.org 
 
 33 33  0  0  1  0  0  0  0  0999 V2000 
    1.5779    0.4874    0.0231 C   0  0  0  0  0  0  0  0  0  0  0  0 
   -0.8664   -0.6615    4.6156 C   0  0  0  0  0  0  0  0  0  0  0  0 
    0.5121   -0.8219    4.7731 C   0  0  0  0  0  0  0  0  0  0  0  0 
   -1.4432   -0.8653    3.3617 C   0  0  0  0  0  0  0  0  0  0  0  0 
    1.3037   -1.1829    3.6832 C   0  0  0  0  0  0  0  0  0  0  0  0 
   -0.6455   -1.2242    2.2732 C   0  0  0  0  0  0  0  0  0  0  0  0 
    1.6114   -1.7637    1.2370 C   0  0  0  0  0  0  0  0  0  0  0  0 
    2.4418   -0.5892    0.6778 C   0  0  1  0  0  0  0  0  0  0  0  0 
    0.7387   -1.3869    2.4154 C   0  0  0  0  0  0  0  0  0  0  0  0 
    6.6568   -2.3433    0.9052 C   0  0  0  0  0  0  0  0  0  0  0  0 
    5.5952   -1.2943    0.5397 C   0  0  0  0  0  0  0  0  0  0  0  0 
    8.9268   -2.5241    1.7293 N   0  0  0  0  0  0  0  0  0  0  0  0 
    7.8155   -1.7775    1.3008 N   0  0  0  0  0  0  0  0  0  0  0  0 
    3.3684   -1.1043   -0.3646 N   0  0  0  0  0  0  0  0  0  0  0  0 
    4.4244   -1.8606    0.1763 N   0  0  0  0  0  0  0  0  0  0  0  0 
    6.4462   -3.5525    0.8419 O   0  0  0  0  0  0  0  0  0  0  0  0 
    5.8199   -0.0851    0.5646 O   0  0  0  0  0  0  0  0  0  0  0  0 
    0.8525    0.8842    0.7386 H   0  0  0  0  0  0  0  0  0  0  0  0 
    1.0325    0.0755   -0.8340 H   0  0  0  0  0  0  0  0  0  0  0  0 
    2.1925    1.3243   -0.3301 H   0  0  0  0  0  0  0  0  0  0  0  0 
   -1.4855   -0.3845    5.4647 H   0  0  0  0  0  0  0  0  0  0  0  0 
    0.9704   -0.6719    5.7472 H   0  0  0  0  0  0  0  0  0  0  0  0 
   -2.5157   -0.7478    3.2290 H   0  0  0  0  0  0  0  0  0  0  0  0 
    2.3755   -1.3147    3.8174 H   0  0  0  0  0  0  0  0  0  0  0  0 
   -1.1036   -1.3858    1.2999 H   0  0  0  0  0  0  0  0  0  0  0  0 
    2.3061   -2.5565    1.5430 H   0  0  0  0  0  0  0  0  0  0  0  0 
    1.0011   -2.1733    0.4228 H   0  0  0  0  0  0  0  0  0  0  0  0 
    3.0133   -0.1374    1.5030 H   0  0  0  0  0  0  0  0  0  0  0  0 
    9.2560   -3.0718    0.9322 H   0  0  0  0  0  0  0  0  0  0  0  0 
    8.5861   -3.2078    2.4073 H   0  0  0  0  0  0  0  0  0  0  0  0 
    7.8832   -0.7687    1.3455 H   0  0  0  0  0  0  0  0  0  0  0  0 
    3.8134   -0.2989   -0.8085 H   0  0  0  0  0  0  0  0  0  0  0  0 
    4.4012   -2.8649    0.0468 H   0  0  0  0  0  0  0  0  0  0  0  0 
  1  8  1  0  0  0  0 
  1 18  1  0  0  0  0 
  2  3  1  0  0  0  0 
  2 21  1  0  0  0  0 
  3 22  1  0  0  0  0 
  4  2  2  0  0  0  0 
  5 24  1  0  0  0  0 
  5  3  2  0  0  0  0 
  6  9  2  0  0  0  0 
  6  4  1  0  0  0  0 
  7 26  1  0  0  0  0 
  7  9  1  0  0  0  0 
  8  7  1  0  0  0  0 
  8 28  1  1  0  0  0 
  9  5  1  0  0  0  0 
 10 13  1  0  0  0  0 
 11 17  2  0  0  0  0 
 11 10  1  0  0  0  0 
 12 30  1  0  0  0  0 
 13 31  1  0  0  0  0 
 13 12  1  0  0  0  0 
 14 15  1  0  0  0  0 
 14  8  1  0  0  0  0 
 15 11  1  0  0  0  0 
 16 10  2  0  0  0  0 
 19  1  1  0  0  0  0 
 20  1  1  0  0  0  0 
 23  4  1  0  0  0  0 
 25  6  1  0  0  0  0 
 27  7  1  0  0  0  0 
 29 12  1  0  0  0  0 
 32 14  1  0  0  0  0 
 33 15  1  0  0  0  0 
M  END 
>  <HBA> 
6 
 
>  <HBD> 
4 
 
>  <TPSA> 
96.25 
 
>  <cid> 
57118 
 
>  <dipole> 
0.51 
 
>  <excitation_energy_1> 
4.125 
 
>  <excitation_energy_2> 
4.722 
 
>  <excitation_energy_3> 
4.782 
 
>  <excitation_energy_4> 
4.992 
 
>  <homo_energy> 
-6.539 
 
>  <homo_lumo_gap> 
5.38 
 
>  <logP> 
1.101 
 
>  <lumo_energy> 
-1.159 
 
>  <melting_point> 
183.06 
 
>  <molecular_refractivity> 
62.15 
 
>  <oscillator_strength_1> 
0.0066 
 
>  <oscillator_strength_2> 
0.0025 
 
>  <oscillator_strength_3> 
0.0714 
 
>  <oscillator_strength_4> 
0.0073 
 
>  <open_babel_can_smiles> 
NNC(=O)C(=O)NN[C@H](Cc1ccccc1)C 
 
>  <mulliken_charges> 
33 
1   -0.474739 
2   -0.131023 
3   -0.127914 
4   -0.127752 
5   -0.180126 
6   -0.186188 
7   -0.347469 
8   0.058337 
9   0.169085 
10   0.550779 
11   0.554181 
12   -0.552593 
13   -0.491831 
14   -0.431674 
15   -0.478021 
16   -0.535214 
17   -0.543891 
18   0.169441 
19   0.155131 
20   0.149935 
21   0.128945 
22   0.129874 
23   0.129302 
24   0.125728 
25   0.125095 
26   0.149024 
27   0.147686 
28   0.144016 
29   0.330437 
30   0.331217 
31   0.369074 
32   0.325354 
33   0.365794 
 
>  <lowdin_charges> 
33 
1   -0.455338 
2   -0.161496 
3   -0.153994 
4   -0.153166 
5   -0.164711 
6   -0.169053 
7   -0.282207 
8   -0.062819 
9   -0.003013 
10   0.11364 
11   0.112704 
12   -0.448594 
13   -0.196169 
14   -0.279273 
15   -0.184484 
16   -0.314381 
17   -0.3159 
18   0.168091 
19   0.155295 
20   0.154139 
21   0.158409 
22   0.157442 
23   0.155645 
24   0.153351 
25   0.154792 
26   0.154215 
27   0.153622 
28   0.138697 
29   0.270481 
30   0.271845 
31   0.302865 
32   0.268208 
33   0.301157 
 
$$$$ 
 
