PCCDB-ID:  15291 
public computational chemistry database (PCCDB) project, http://pccdb.org 
 
 20 20  0  0  0  0  0  0  0  0999 V2000 
    4.9747    2.3874   -3.4643 C   0  0  0  0  0  0  0  0  0  0  0  0 
    4.3547    2.4318   -2.0762 C   0  0  0  0  0  0  0  0  0  0  0  0 
    5.8284   -1.5919    0.2255 C   0  0  0  0  0  0  0  0  0  0  0  0 
    6.8359    0.5245    0.7507 C   0  0  0  0  0  0  0  0  0  0  0  0 
    6.6763   -2.1668    1.1705 C   0  0  0  0  0  0  0  0  0  0  0  0 
    7.6356   -0.1533    1.6713 C   0  0  0  0  0  0  0  0  0  0  0  0 
    5.9086   -0.2134    0.0088 C   0  0  0  0  0  0  0  0  0  0  0  0 
    5.0001    0.4025   -1.0087 C   0  0  0  0  0  0  0  0  0  0  0  0 
    7.5697   -1.4729    1.8886 N   0  0  0  0  0  0  0  0  0  0  0  0 
    4.1940   -0.2290   -1.6627 O   0  0  0  0  0  0  0  0  0  0  0  0 
    5.1797    1.7357   -1.1084 O   0  0  0  0  0  0  0  0  0  0  0  0 
    4.3699    2.9824   -4.1582 H   0  0  0  0  0  0  0  0  0  0  0  0 
    5.0125    1.3602   -3.8374 H   0  0  0  0  0  0  0  0  0  0  0  0 
    5.9890    2.7992   -3.4519 H   0  0  0  0  0  0  0  0  0  0  0  0 
    3.3575    1.9859   -2.0703 H   0  0  0  0  0  0  0  0  0  0  0  0 
    4.2991    3.4533   -1.6926 H   0  0  0  0  0  0  0  0  0  0  0  0 
    5.1169   -2.1866   -0.3369 H   0  0  0  0  0  0  0  0  0  0  0  0 
    6.9308    1.5954    0.6139 H   0  0  0  0  0  0  0  0  0  0  0  0 
    6.6385   -3.2377    1.3617 H   0  0  0  0  0  0  0  0  0  0  0  0 
    8.3672    0.3921    2.2649 H   0  0  0  0  0  0  0  0  0  0  0  0 
  1 14  1  0  0  0  0 
  1  2  1  0  0  0  0 
  2 15  1  0  0  0  0 
  2 16  1  0  0  0  0 
  2 11  1  0  0  0  0 
  3  5  1  0  0  0  0 
  4  6  2  0  0  0  0 
  5 19  1  0  0  0  0 
  5  9  2  0  0  0  0 
  6  9  1  0  0  0  0 
  6 20  1  0  0  0  0 
  7  3  2  0  0  0  0 
  7  4  1  0  0  0  0 
  8  7  1  0  0  0  0 
 10  8  2  0  0  0  0 
 11  8  1  0  0  0  0 
 12  1  1  0  0  0  0 
 13  1  1  0  0  0  0 
 17  3  1  0  0  0  0 
 18  4  1  0  0  0  0 
M  END 
>  <HBA> 
3 
 
>  <HBD> 
0 
 
>  <TPSA> 
39.19 
 
>  <cid> 
15291 
 
>  <dipole> 
2.6 
 
>  <excitation_energy_1> 
4.189 
 
>  <excitation_energy_2> 
4.721 
 
>  <excitation_energy_3> 
4.848 
 
>  <excitation_energy_4> 
5.208 
 
>  <homo_energy> 
-7.108 
 
>  <homo_lumo_gap> 
5.38 
 
>  <logP> 
1.258 
 
>  <lumo_energy> 
-1.728 
 
>  <melting_point> 
44.1 
 
>  <molecular_refractivity> 
40.32 
 
>  <oscillator_strength_1> 
0.0024 
 
>  <oscillator_strength_2> 
0.0001 
 
>  <oscillator_strength_3> 
0.0478 
 
>  <oscillator_strength_4> 
0.0 
 
>  <open_babel_can_smiles> 
CCOC(=O)c1ccncc1 
 
>  <mulliken_charges> 
20 
1   -0.463061 
2   -0.045586 
3   -0.161276 
4   -0.167621 
5   0.033974 
6   0.035641 
7   0.071609 
8   0.601844 
9   -0.398117 
10   -0.484013 
11   -0.473577 
12   0.154065 
13   0.178798 
14   0.15947 
15   0.174697 
16   0.156401 
17   0.169205 
18   0.161474 
19   0.14876 
20   0.147313 
 
>  <lowdin_charges> 
20 
1   -0.45425 
2   -0.124846 
3   -0.152158 
4   -0.157828 
5   -0.086554 
6   -0.090552 
7   -0.021122 
8   0.199539 
9   -0.136376 
10   -0.264502 
11   -0.188742 
12   0.16235 
13   0.165912 
14   0.156609 
15   0.160349 
16   0.153382 
17   0.183375 
18   0.175366 
19   0.158708 
20   0.161341 
 
$$$$ 
 
