PCCDB-ID:  34752 
public computational chemistry database (PCCDB) project, http://pccdb.org 
 
 21 20  0  0  0  0  0  0  0  0999 V2000 
    2.4792   -3.0397    0.9324 C   0  0  0  0  0  0  0  0  0  0  0  0 
    2.0236   -1.9191   -0.0063 C   0  0  0  0  0  0  0  0  0  0  0  0 
    2.8965   -1.7631   -1.2696 C   0  0  0  0  0  0  0  0  0  0  0  0 
    4.3075   -1.3252   -0.9872 C   0  0  0  0  0  0  0  0  0  0  0  0 
    5.4177   -1.9600   -1.3861 C   0  0  0  0  0  0  0  0  0  0  0  0 
    6.8217   -1.4999   -1.0946 C   0  0  0  0  0  0  0  0  0  0  0  0 
    7.5756   -2.3680   -0.0728 C   0  0  0  0  0  0  0  0  0  0  0  0 
    8.7727   -2.5045   -0.0685 O   0  0  0  0  0  0  0  0  0  0  0  0 
    6.8007   -2.9485    0.8756 O   0  0  0  0  0  0  0  0  0  0  0  0 
    1.8032   -3.1361    1.7889 H   0  0  0  0  0  0  0  0  0  0  0  0 
    3.4841   -2.8526    1.3300 H   0  0  0  0  0  0  0  0  0  0  0  0 
    2.5023   -4.0067    0.4150 H   0  0  0  0  0  0  0  0  0  0  0  0 
    2.0045   -0.9652    0.5391 H   0  0  0  0  0  0  0  0  0  0  0  0 
    0.9905   -2.1085   -0.3242 H   0  0  0  0  0  0  0  0  0  0  0  0 
    2.4239   -1.0144   -1.9229 H   0  0  0  0  0  0  0  0  0  0  0  0 
    2.9066   -2.7061   -1.8325 H   0  0  0  0  0  0  0  0  0  0  0  0 
    4.4121   -0.3931   -0.4251 H   0  0  0  0  0  0  0  0  0  0  0  0 
    5.3227   -2.8869   -1.9543 H   0  0  0  0  0  0  0  0  0  0  0  0 
    6.8097   -0.4780   -0.6909 H   0  0  0  0  0  0  0  0  0  0  0  0 
    7.4402   -1.4778   -1.9972 H   0  0  0  0  0  0  0  0  0  0  0  0 
    5.8661   -2.7492    0.6764 H   0  0  0  0  0  0  0  0  0  0  0  0 
  1 11  1  0  0  0  0 
  1 10  1  0  0  0  0 
  2 13  1  0  0  0  0 
  2  1  1  0  0  0  0 
  3  4  1  0  0  0  0 
  3  2  1  0  0  0  0 
  4 17  1  0  0  0  0 
  5  6  1  0  0  0  0 
  5  4  2  0  0  0  0 
  6 19  1  0  0  0  0 
  6  7  1  0  0  0  0 
  7  8  2  0  0  0  0 
  7  9  1  0  0  0  0 
 12  1  1  0  0  0  0 
 14  2  1  0  0  0  0 
 15  3  1  0  0  0  0 
 16  3  1  0  0  0  0 
 18  5  1  0  0  0  0 
 20  6  1  0  0  0  0 
 21  9  1  0  0  0  0 
M  END 
>  <HBA> 
2 
 
>  <HBD> 
1 
 
>  <TPSA> 
37.3 
 
>  <cid> 
34752 
 
>  <dipole> 
5.24 
 
>  <excitation_energy_1> 
5.512 
 
>  <excitation_energy_2> 
6.152 
 
>  <excitation_energy_3> 
6.338 
 
>  <excitation_energy_4> 
6.698 
 
>  <homo_energy> 
-6.904 
 
>  <homo_lumo_gap> 
6.68 
 
>  <logP> 
1.817 
 
>  <lumo_energy> 
-0.223 
 
>  <melting_point> 
59.72 
 
>  <molecular_refractivity> 
37.06 
 
>  <oscillator_strength_1> 
0.0152 
 
>  <oscillator_strength_2> 
0.1028 
 
>  <oscillator_strength_3> 
0.0358 
 
>  <oscillator_strength_4> 
0.03 
 
>  <open_babel_can_smiles> 
CCC/C=C/CC(=O)O 
 
>  <mulliken_charges> 
21 
1   -0.444788 
2   -0.256428 
3   -0.301794 
4   -0.084747 
5   -0.154378 
6   -0.410604 
7   0.583897 
8   -0.442316 
9   -0.570773 
10   0.153628 
11   0.141178 
12   0.148111 
13   0.137821 
14   0.142939 
15   0.153005 
16   0.143548 
17   0.131707 
18   0.144326 
19   0.183112 
20   0.187893 
21   0.414663 
 
>  <lowdin_charges> 
21 
1   -0.445131 
2   -0.27073 
3   -0.274725 
4   -0.154619 
5   -0.190133 
6   -0.313357 
7   0.185985 
8   -0.240497 
9   -0.355805 
10   0.156377 
11   0.141909 
12   0.149665 
13   0.142427 
14   0.14675 
15   0.158211 
16   0.148472 
17   0.150522 
18   0.157222 
19   0.17461 
20   0.180537 
21   0.352312 
 
$$$$ 
 
