PCCDB-ID:  68141 
public computational chemistry database (PCCDB) project, http://pccdb.org 
 
 14 14  0  0  0  0  0  0  0  0999 V2000 
   -1.3588   -0.0632   -0.0945 C   0  0  0  0  0  0  0  0  0  0  0  0 
   -0.7782    1.1604   -0.0507 C   0  0  0  0  0  0  0  0  0  0  0  0 
    0.7942   -1.1001   -0.0491 C   0  0  0  0  0  0  0  0  0  0  0  0 
   -0.5564   -1.2589   -0.0648 C   0  0  0  0  0  0  0  0  0  0  0  0 
    0.6629    1.3205    0.0128 C   0  0  0  0  0  0  0  0  0  0  0  0 
   -1.2317   -2.5853   -0.1581 C   0  0  0  0  0  0  0  0  0  0  0  0 
    1.3042    2.3349    0.0768 O   0  0  0  0  0  0  0  0  0  0  0  0 
   -2.3578   -2.7101   -0.5748 O   0  0  0  0  0  0  0  0  0  0  0  0 
   -0.5194   -3.6764    0.2348 O   0  0  0  0  0  0  0  0  0  0  0  0 
    1.3965    0.0907   -0.0151 O   0  0  0  0  0  0  0  0  0  0  0  0 
   -2.4363   -0.1787   -0.1552 H   0  0  0  0  0  0  0  0  0  0  0  0 
   -1.3541    2.0784   -0.0643 H   0  0  0  0  0  0  0  0  0  0  0  0 
    1.5182   -1.9092   -0.0985 H   0  0  0  0  0  0  0  0  0  0  0  0 
    0.2591   -3.4103    0.7502 H   0  0  0  0  0  0  0  0  0  0  0  0 
  1  4  1  0  0  0  0 
  1  2  2  0  0  0  0 
  2  5  1  0  0  0  0 
  3 10  1  0  0  0  0 
  4  3  2  0  0  0  0 
  5  7  2  0  0  0  0 
  6  4  1  0  0  0  0 
  6  9  1  0  0  0  0 
  8  6  2  0  0  0  0 
  9 14  1  0  0  0  0 
 10  5  1  0  0  0  0 
 11  1  1  0  0  0  0 
 12  2  1  0  0  0  0 
 13  3  1  0  0  0  0 
M  END 
>  <HBA> 
4 
 
>  <HBD> 
1 
 
>  <TPSA> 
67.51 
 
>  <cid> 
68141 
 
>  <dipole> 
1.72 
 
>  <excitation_energy_1> 
4.429 
 
>  <excitation_energy_2> 
4.615 
 
>  <excitation_energy_3> 
4.75 
 
>  <excitation_energy_4> 
5.142 
 
>  <homo_energy> 
-7.206 
 
>  <homo_lumo_gap> 
4.876 
 
>  <logP> 
0.338 
 
>  <lumo_energy> 
-2.329 
 
>  <melting_point> 
129.32 
 
>  <molecular_refractivity> 
31.94 
 
>  <oscillator_strength_1> 
0.0667 
 
>  <oscillator_strength_2> 
0.0014 
 
>  <oscillator_strength_3> 
0.0056 
 
>  <oscillator_strength_4> 
0.1573 
 
>  <open_babel_can_smiles> 
O=c1ccc(co1)C(=O)O 
 
>  <mulliken_charges> 
14 
1   -0.08986 
2   -0.214538 
3   0.090585 
4   -0.018471 
5   0.595524 
6   0.566812 
7   -0.441331 
8   -0.436338 
9   -0.571082 
10   -0.440512 
11   0.194356 
12   0.178624 
13   0.175864 
14   0.410369 
 
>  <lowdin_charges> 
14 
1   -0.085756 
2   -0.194901 
3   -0.008607 
4   -0.107827 
5   0.203221 
6   0.193849 
7   -0.217732 
8   -0.228582 
9   -0.350804 
10   -0.117642 
11   0.190025 
12   0.189257 
13   0.176152 
14   0.359348 
 
$$$$ 
 
