PCCDB-ID:  28537 
public computational chemistry database (PCCDB) project, http://pccdb.org 
 
 21 20  0  0  1  0  0  0  0  0999 V2000 
    0.8796    2.3336   -1.1274 C   0  0  0  0  0  0  0  0  0  0  0  0 
    2.3824    2.1346   -0.9099 C   0  0  0  0  0  0  0  0  0  0  0  0 
    4.1607   -1.9758   -1.6285 C   0  0  0  0  0  0  0  0  0  0  0  0 
    2.8507    0.7141   -1.2488 C   0  0  0  0  0  0  0  0  0  0  0  0 
    4.8699   -0.8788   -1.3212 C   0  0  0  0  0  0  0  0  0  0  0  0 
    4.8319   -3.2609   -1.8864 C   0  0  0  0  0  0  0  0  0  0  0  0 
    4.3580    0.5160   -1.0536 C   0  0  1  0  0  0  0  0  0  0  0  0 
    4.2519   -4.2927   -2.1663 O   0  0  0  0  0  0  0  0  0  0  0  0 
    5.1318    1.4440   -1.8277 O   0  0  0  0  0  0  0  0  0  0  0  0 
    0.5751    3.3553   -0.8748 H   0  0  0  0  0  0  0  0  0  0  0  0 
    0.2910    1.6477   -0.5057 H   0  0  0  0  0  0  0  0  0  0  0  0 
    0.6008    2.1531   -2.1730 H   0  0  0  0  0  0  0  0  0  0  0  0 
    2.6349    2.3554    0.1368 H   0  0  0  0  0  0  0  0  0  0  0  0 
    2.9498    2.8502   -1.5158 H   0  0  0  0  0  0  0  0  0  0  0  0 
    3.0760   -1.9775   -1.6998 H   0  0  0  0  0  0  0  0  0  0  0  0 
    2.5897    0.4744   -2.2913 H   0  0  0  0  0  0  0  0  0  0  0  0 
    2.3125   -0.0109   -0.6231 H   0  0  0  0  0  0  0  0  0  0  0  0 
    5.9579   -0.9567   -1.2745 H   0  0  0  0  0  0  0  0  0  0  0  0 
    5.9426   -3.2296   -1.8081 H   0  0  0  0  0  0  0  0  0  0  0  0 
    4.6134    0.7699   -0.0149 H   0  0  0  0  0  0  0  0  0  0  0  0 
    4.9559    1.2504   -2.7636 H   0  0  0  0  0  0  0  0  0  0  0  0 
  1  2  1  0  0  0  0 
  1 10  1  0  0  0  0 
  1 11  1  0  0  0  0 
  2 13  1  0  0  0  0 
  3  5  2  0  0  0  0 
  4  7  1  0  0  0  0 
  4  2  1  0  0  0  0 
  4 17  1  0  0  0  0 
  5 18  1  0  0  0  0 
  5  7  1  0  0  0  0 
  6 19  1  0  0  0  0 
  6  3  1  0  0  0  0 
  7 20  1  1  0  0  0 
  8  6  2  0  0  0  0 
  9  7  1  0  0  0  0 
 12  1  1  0  0  0  0 
 14  2  1  0  0  0  0 
 15  3  1  0  0  0  0 
 16  4  1  0  0  0  0 
 21  9  1  0  0  0  0 
M  END 
>  <HBA> 
2 
 
>  <HBD> 
1 
 
>  <TPSA> 
37.3 
 
>  <cid> 
28537 
 
>  <dipole> 
2.51 
 
>  <excitation_energy_1> 
3.631 
 
>  <excitation_energy_2> 
5.127 
 
>  <excitation_energy_3> 
6.019 
 
>  <excitation_energy_4> 
6.357 
 
>  <homo_energy> 
-6.912 
 
>  <homo_lumo_gap> 
5.167 
 
>  <logP> 
0.902 
 
>  <lumo_energy> 
-1.744 
 
>  <melting_point> 
32.91 
 
>  <molecular_refractivity> 
36.65 
 
>  <oscillator_strength_1> 
0.0003 
 
>  <oscillator_strength_2> 
0.0834 
 
>  <oscillator_strength_3> 
0.3971 
 
>  <oscillator_strength_4> 
0.0211 
 
>  <open_babel_can_smiles> 
CCC[C@@H](/C=C/C=O)O 
 
>  <mulliken_charges> 
21 
1   -0.444767 
2   -0.248538 
3   -0.148812 
4   -0.278238 
5   -0.132076 
6   0.233833 
7   0.095424 
8   -0.411958 
9   -0.614379 
10   0.148015 
11   0.143202 
12   0.142454 
13   0.134367 
14   0.15121 
15   0.155369 
16   0.128908 
17   0.1426 
18   0.154357 
19   0.102353 
20   0.157474 
21   0.389201 
 
>  <lowdin_charges> 
21 
1   -0.443843 
2   -0.272869 
3   -0.199321 
4   -0.292283 
5   -0.130914 
6   0.04675 
7   0.000155 
8   -0.226 
9   -0.451701 
10   0.152004 
11   0.148368 
12   0.145782 
13   0.140847 
14   0.151377 
15   0.168445 
16   0.13882 
17   0.15144 
18   0.162678 
19   0.112508 
20   0.156333 
21   0.341424 
 
$$$$ 
 
