PCCDB-ID:  15877 
public computational chemistry database (PCCDB) project, http://pccdb.org 
 
 18 17  0  0  1  0  0  0  0  0999 V2000 
    3.3961   -1.2509    0.0174 C   0  0  0  0  0  0  0  0  0  0  0  0 
    2.3166    2.5258    0.0087 C   0  0  0  0  0  0  0  0  0  0  0  0 
    2.7158    0.0585    0.4326 C   0  0  0  0  0  0  0  0  0  0  0  0 
    4.6831    1.6019   -0.2189 C   0  0  0  0  0  0  0  0  0  0  0  0 
    3.1761    1.3044   -0.3474 C   0  0  2  0  0  0  0  0  0  0  0  0 
    5.3309    1.9317    1.4821 S   0  0  0  0  0  0  0  0  0  0  0  0 
    2.9439   -2.1042    0.5352 H   0  0  0  0  0  0  0  0  0  0  0  0 
    4.4643   -1.2552    0.2617 H   0  0  0  0  0  0  0  0  0  0  0  0 
    3.2982   -1.4285   -1.0613 H   0  0  0  0  0  0  0  0  0  0  0  0 
    1.2611    2.3360   -0.2165 H   0  0  0  0  0  0  0  0  0  0  0  0 
    2.6244    3.4136   -0.5577 H   0  0  0  0  0  0  0  0  0  0  0  0 
    2.3856    2.7639    1.0767 H   0  0  0  0  0  0  0  0  0  0  0  0 
    2.8732    0.2304    1.5050 H   0  0  0  0  0  0  0  0  0  0  0  0 
    1.6311   -0.0435    0.2915 H   0  0  0  0  0  0  0  0  0  0  0  0 
    4.9566    2.4485   -0.8566 H   0  0  0  0  0  0  0  0  0  0  0  0 
    5.2740    0.7464   -0.5588 H   0  0  0  0  0  0  0  0  0  0  0  0 
    3.0256    1.0970   -1.4201 H   0  0  0  0  0  0  0  0  0  0  0  0 
    4.7388    3.1315    1.6621 H   0  0  0  0  0  0  0  0  0  0  0  0 
  1  8  1  0  0  0  0 
  1  3  1  0  0  0  0 
  1  7  1  0  0  0  0 
  2 12  1  0  0  0  0 
  3 13  1  0  0  0  0 
  4  6  1  0  0  0  0 
  5 17  1  6  0  0  0 
  5  4  1  0  0  0  0 
  5  2  1  0  0  0  0 
  5  3  1  0  0  0  0 
  6 18  1  0  0  0  0 
  9  1  1  0  0  0  0 
 10  2  1  0  0  0  0 
 11  2  1  0  0  0  0 
 14  3  1  0  0  0  0 
 15  4  1  0  0  0  0 
 16  4  1  0  0  0  0 
M  END 
>  <HBA> 
1 
 
>  <HBD> 
1 
 
>  <TPSA> 
38.8 
 
>  <cid> 
15877 
 
>  <dipole> 
1.79 
 
>  <excitation_energy_1> 
5.311 
 
>  <excitation_energy_2> 
5.757 
 
>  <excitation_energy_3> 
6.19 
 
>  <excitation_energy_4> 
6.376 
 
>  <homo_energy> 
-6.359 
 
>  <homo_lumo_gap> 
7.233 
 
>  <logP> 
1.962 
 
>  <lumo_energy> 
0.873 
 
>  <melting_point> 
-5.64 
 
>  <molecular_refractivity> 
34.08 
 
>  <oscillator_strength_1> 
0.0128 
 
>  <oscillator_strength_2> 
0.019 
 
>  <oscillator_strength_3> 
0.0032 
 
>  <oscillator_strength_4> 
0.0114 
 
>  <open_babel_can_smiles> 
CC[C@H](CS)C 
 
>  <mulliken_charges> 
18 
1   -0.453178 
2   -0.453815 
3   -0.246174 
4   -0.422447 
5   -0.057117 
6   -0.09527 
7   0.146562 
8   0.148693 
9   0.138609 
10   0.147736 
11   0.138612 
12   0.147132 
13   0.157134 
14   0.129022 
15   0.17255 
16   0.179753 
17   0.126868 
18   0.095328 
 
>  <lowdin_charges> 
18 
1   -0.444939 
2   -0.44619 
3   -0.273813 
4   -0.375813 
5   -0.125256 
6   -0.096696 
7   0.153828 
8   0.147001 
9   0.142883 
10   0.151238 
11   0.147273 
12   0.148874 
13   0.151199 
14   0.139733 
15   0.160542 
16   0.168922 
17   0.138854 
18   0.112362 
 
$$$$ 
 
