PCCDB-ID:  51358 
public computational chemistry database (PCCDB) project, http://pccdb.org 
 
 27 28  0  0  0  0  0  0  0  0999 V2000 
    0.8300    0.9064    0.3889 C   0  0  0  0  0  0  0  0  0  0  0  0 
   10.0646   -0.4165   -1.3984 C   0  0  0  0  0  0  0  0  0  0  0  0 
    3.4098    1.2099    0.1247 C   0  0  0  0  0  0  0  0  0  0  0  0 
    5.8510    0.2923   -0.2451 C   0  0  0  0  0  0  0  0  0  0  0  0 
    4.4812   -2.1940   -0.3680 C   0  0  0  0  0  0  0  0  0  0  0  0 
    2.2463    0.5055    0.1808 C   0  0  0  0  0  0  0  0  0  0  0  0 
    8.6207   -0.7679   -1.6312 C   0  0  0  0  0  0  0  0  0  0  0  0 
    4.4586    0.2515   -0.1062 C   0  0  0  0  0  0  0  0  0  0  0  0 
    5.8705   -2.1472   -0.5490 C   0  0  0  0  0  0  0  0  0  0  0  0 
    3.8148   -0.9992   -0.1705 C   0  0  0  0  0  0  0  0  0  0  0  0 
    6.5281   -0.8992   -0.4702 C   0  0  0  0  0  0  0  0  0  0  0  0 
    6.5493   -3.4753   -0.7675 C   0  0  0  0  0  0  0  0  0  0  0  0 
    8.1148   -1.0131   -2.7080 O   0  0  0  0  0  0  0  0  0  0  0  0 
    6.2589   -4.4561   -0.1223 O   0  0  0  0  0  0  0  0  0  0  0  0 
    7.4658   -3.5402   -1.7535 O   0  0  0  0  0  0  0  0  0  0  0  0 
    2.4662   -0.8442    0.0038 O   0  0  0  0  0  0  0  0  0  0  0  0 
    7.9365   -0.8089   -0.4590 O   0  0  0  0  0  0  0  0  0  0  0  0 
    0.7604    1.9885    0.5248 H   0  0  0  0  0  0  0  0  0  0  0  0 
    0.4081    0.4154    1.2739 H   0  0  0  0  0  0  0  0  0  0  0  0 
    0.2103    0.6223   -0.4702 H   0  0  0  0  0  0  0  0  0  0  0  0 
   10.5209   -1.1643   -0.7412 H   0  0  0  0  0  0  0  0  0  0  0  0 
   10.1426    0.5523   -0.8951 H   0  0  0  0  0  0  0  0  0  0  0  0 
   10.5909   -0.3902   -2.3525 H   0  0  0  0  0  0  0  0  0  0  0  0 
    3.5085    2.2809    0.2335 H   0  0  0  0  0  0  0  0  0  0  0  0 
    6.4117    1.2171   -0.1583 H   0  0  0  0  0  0  0  0  0  0  0  0 
    3.9659   -3.1474   -0.3865 H   0  0  0  0  0  0  0  0  0  0  0  0 
    7.4777   -2.7101   -2.2767 H   0  0  0  0  0  0  0  0  0  0  0  0 
  1 18  1  0  0  0  0 
  1 19  1  0  0  0  0 
  2 22  1  0  0  0  0 
  2 21  1  0  0  0  0 
  3  6  2  0  0  0  0 
  3 24  1  0  0  0  0 
  4 25  1  0  0  0  0 
  4  8  2  0  0  0  0 
  5 10  2  0  0  0  0 
  6  1  1  0  0  0  0 
  7  2  1  0  0  0  0 
  7 17  1  0  0  0  0 
  8  3  1  0  0  0  0 
  9 11  2  0  0  0  0 
  9  5  1  0  0  0  0 
 10  8  1  0  0  0  0 
 10 16  1  0  0  0  0 
 11 17  1  0  0  0  0 
 11  4  1  0  0  0  0 
 12  9  1  0  0  0  0 
 12 14  2  0  0  0  0 
 13  7  2  0  0  0  0 
 15 12  1  0  0  0  0 
 16  6  1  0  0  0  0 
 20  1  1  0  0  0  0 
 23  2  1  0  0  0  0 
 26  5  1  0  0  0  0 
 27 15  1  0  0  0  0 
M  END 
>  <HBA> 
5 
 
>  <HBD> 
1 
 
>  <TPSA> 
76.74 
 
>  <cid> 
51358 
 
>  <dipole> 
6.45 
 
>  <excitation_energy_1> 
4.601 
 
>  <excitation_energy_2> 
4.681 
 
>  <excitation_energy_3> 
4.975 
 
>  <excitation_energy_4> 
5.063 
 
>  <homo_energy> 
-6.319 
 
>  <homo_lumo_gap> 
5.07 
 
>  <logP> 
2.365 
 
>  <lumo_energy> 
-1.249 
 
>  <melting_point> 
170.89 
 
>  <molecular_refractivity> 
59.64 
 
>  <oscillator_strength_1> 
0.2575 
 
>  <oscillator_strength_2> 
0.0142 
 
>  <oscillator_strength_3> 
0.044 
 
>  <oscillator_strength_4> 
0.0326 
 
>  <open_babel_can_smiles> 
CC(=O)Oc1cc2cc(oc2cc1C(=O)O)C 
 
>  <mulliken_charges> 
27 
1   -0.535269 
2   -0.526501 
3   -0.252002 
4   -0.243705 
5   -0.236565 
6   0.357548 
7   0.601826 
8   0.135841 
9   0.004824 
10   0.338785 
11   0.299939 
12   0.536818 
13   -0.476642 
14   -0.444249 
15   -0.592628 
16   -0.508057 
17   -0.504332 
18   0.173115 
19   0.183754 
20   0.183302 
21   0.203037 
22   0.189487 
23   0.193476 
24   0.148958 
25   0.145403 
26   0.181097 
27   0.442739 
 
>  <lowdin_charges> 
27 
1   -0.44058 
2   -0.461021 
3   -0.225774 
4   -0.172192 
5   -0.144167 
6   0.108334 
7   0.220686 
8   -0.011803 
9   -0.069311 
10   0.084151 
11   0.093258 
12   0.194159 
13   -0.267202 
14   -0.244984 
15   -0.359443 
16   -0.118171 
17   -0.159427 
18   0.170669 
19   0.175747 
20   0.175544 
21   0.191591 
22   0.182776 
23   0.182109 
24   0.171979 
25   0.171751 
26   0.189749 
27   0.36157 
 
$$$$ 
 
