PCCDB-ID:  68819 
public computational chemistry database (PCCDB) project, http://pccdb.org 
 
 34 34  0  0  1  0  0  0  0  0999 V2000 
    2.4169    1.1071    2.3019 C   0  0  0  0  0  0  0  0  0  0  0  0 
    4.9183    0.9438    2.4838 C   0  0  0  0  0  0  0  0  0  0  0  0 
    7.4730    2.0388   -4.8145 C   0  0  0  0  0  0  0  0  0  0  0  0 
    6.3942    1.1537   -4.8265 C   0  0  0  0  0  0  0  0  0  0  0  0 
    7.5277    3.0440   -3.8462 C   0  0  0  0  0  0  0  0  0  0  0  0 
    5.3795    1.2669   -3.8740 C   0  0  0  0  0  0  0  0  0  0  0  0 
    6.5126    3.1554   -2.8964 C   0  0  0  0  0  0  0  0  0  0  0  0 
    4.8854    1.9428   -0.4508 C   0  0  0  0  0  0  0  0  0  0  0  0 
    3.7018   -0.5101    0.8424 C   0  0  0  0  0  0  0  0  0  0  0  0 
    5.4310    2.2637   -2.8952 C   0  0  0  0  0  0  0  0  0  0  0  0 
    4.3478    2.3787   -1.8300 C   0  0  1  0  0  0  0  0  0  0  0  0 
    3.7240    0.8927    1.5187 C   0  0  0  0  0  0  0  0  0  0  0  0 
    3.8157    1.9998    0.5521 N   0  0  0  0  0  0  0  0  0  0  0  0 
    2.8513   -0.5819   -0.3083 O   0  0  0  0  0  0  0  0  0  0  0  0 
    3.1652    1.6547   -2.1567 O   0  0  0  0  0  0  0  0  0  0  0  0 
    2.3054    0.3651    3.1003 H   0  0  0  0  0  0  0  0  0  0  0  0 
    1.5366    1.0331    1.6473 H   0  0  0  0  0  0  0  0  0  0  0  0 
    2.4060    2.1065    2.7465 H   0  0  0  0  0  0  0  0  0  0  0  0 
    4.8748    0.1247    3.2118 H   0  0  0  0  0  0  0  0  0  0  0  0 
    4.9192    1.8929    3.0287 H   0  0  0  0  0  0  0  0  0  0  0  0 
    5.8690    0.8620    1.9448 H   0  0  0  0  0  0  0  0  0  0  0  0 
    8.2611    1.9523   -5.5580 H   0  0  0  0  0  0  0  0  0  0  0  0 
    6.3367    0.3761   -5.5841 H   0  0  0  0  0  0  0  0  0  0  0  0 
    8.3580    3.7456   -3.8343 H   0  0  0  0  0  0  0  0  0  0  0  0 
    4.5263    0.5969   -3.8956 H   0  0  0  0  0  0  0  0  0  0  0  0 
    6.5572    3.9493   -2.1530 H   0  0  0  0  0  0  0  0  0  0  0  0 
    5.7197    2.5966   -0.1661 H   0  0  0  0  0  0  0  0  0  0  0  0 
    5.3111    0.9342   -0.5706 H   0  0  0  0  0  0  0  0  0  0  0  0 
    3.4146   -1.2758    1.5775 H   0  0  0  0  0  0  0  0  0  0  0  0 
    4.6944   -0.7786    0.4719 H   0  0  0  0  0  0  0  0  0  0  0  0 
    4.0369    3.4306   -1.7607 H   0  0  0  0  0  0  0  0  0  0  0  0 
    2.9350    2.0419    0.0434 H   0  0  0  0  0  0  0  0  0  0  0  0 
    1.9332   -0.4599   -0.0200 H   0  0  0  0  0  0  0  0  0  0  0  0 
    3.2037    0.7755   -1.7282 H   0  0  0  0  0  0  0  0  0  0  0  0 
  1 18  1  0  0  0  0 
  1 16  1  0  0  0  0 
  2 20  1  0  0  0  0 
  2 19  1  0  0  0  0 
  3  5  1  0  0  0  0 
  4  3  2  0  0  0  0 
  4  6  1  0  0  0  0 
  5 24  1  0  0  0  0 
  5  7  2  0  0  0  0 
  6 10  2  0  0  0  0 
  7 10  1  0  0  0  0 
  7 26  1  0  0  0  0 
  8 27  1  0  0  0  0 
  8 13  1  0  0  0  0 
  9 12  1  0  0  0  0 
  9 29  1  0  0  0  0 
 10 11  1  0  0  0  0 
 11 31  1  1  0  0  0 
 11  8  1  0  0  0  0 
 12  1  1  0  0  0  0 
 12  2  1  0  0  0  0 
 13 12  1  0  0  0  0 
 14 33  1  0  0  0  0 
 14  9  1  0  0  0  0 
 15 11  1  0  0  0  0 
 15 34  1  0  0  0  0 
 17  1  1  0  0  0  0 
 21  2  1  0  0  0  0 
 22  3  1  0  0  0  0 
 23  4  1  0  0  0  0 
 25  6  1  0  0  0  0 
 28  8  1  0  0  0  0 
 30  9  1  0  0  0  0 
 32 13  1  0  0  0  0 
M  END 
>  <HBA> 
3 
 
>  <HBD> 
3 
 
>  <TPSA> 
52.49 
 
>  <cid> 
68819 
 
>  <dipole> 
2.91 
 
>  <excitation_energy_1> 
5.158 
 
>  <excitation_energy_2> 
5.249 
 
>  <excitation_energy_3> 
5.443 
 
>  <excitation_energy_4> 
5.545 
 
>  <homo_energy> 
-5.916 
 
>  <homo_lumo_gap> 
6.085 
 
>  <logP> 
1.471 
 
>  <lumo_energy> 
0.169 
 
>  <melting_point> 
79.27 
 
>  <molecular_refractivity> 
60.61 
 
>  <oscillator_strength_1> 
0.0054 
 
>  <oscillator_strength_2> 
0.014 
 
>  <oscillator_strength_3> 
0.0385 
 
>  <oscillator_strength_4> 
0.0022 
 
>  <open_babel_can_smiles> 
OCC(NC[C@@H](c1ccccc1)O)(C)C 
 
>  <mulliken_charges> 
34 
1   -0.466113 
2   -0.445634 
3   -0.1289 
4   -0.130994 
5   -0.132912 
6   -0.178497 
7   -0.181207 
8   -0.139773 
9   -0.048135 
10   0.144737 
11   0.043829 
12   0.178074 
13   -0.570303 
14   -0.627433 
15   -0.66655 
16   0.144927 
17   0.122051 
18   0.170526 
19   0.138162 
20   0.159872 
21   0.149296 
22   0.125001 
23   0.126307 
24   0.125934 
25   0.135071 
26   0.122287 
27   0.14411 
28   0.124495 
29   0.131127 
30   0.155473 
31   0.146498 
32   0.303256 
33   0.402929 
34   0.42249 
 
>  <lowdin_charges> 
34 
1   -0.45002 
2   -0.446064 
3   -0.163113 
4   -0.155425 
5   -0.157008 
6   -0.164596 
7   -0.169833 
8   -0.22258 
9   -0.158603 
10   -0.016917 
11   -0.002385 
12   0.047176 
13   -0.366376 
14   -0.456819 
15   -0.472991 
16   0.151807 
17   0.137617 
18   0.16434 
19   0.149225 
20   0.160657 
21   0.152615 
22   0.156103 
23   0.156169 
24   0.156084 
25   0.162953 
26   0.153663 
27   0.146666 
28   0.13018 
29   0.138791 
30   0.150476 
31   0.145103 
32   0.255352 
33   0.347017 
34   0.340739 
 
$$$$ 
 
