PCCDB-ID:  7938 
public computational chemistry database (PCCDB) project, http://pccdb.org 
 
 16 16  0  0  0  0  0  0  0  0999 V2000 
    0.9975   -0.1427   -0.0298 C   0  0  0  0  0  0  0  0  0  0  0  0 
    5.2303   -2.5417   -0.0400 C   0  0  0  0  0  0  0  0  0  0  0  0 
    3.2064    1.1207   -0.0345 C   0  0  0  0  0  0  0  0  0  0  0  0 
    5.1795    0.0023   -0.0408 C   0  0  0  0  0  0  0  0  0  0  0  0 
    2.5029   -0.0918   -0.0336 C   0  0  0  0  0  0  0  0  0  0  0  0 
    4.5005   -1.2241   -0.0388 C   0  0  0  0  0  0  0  0  0  0  0  0 
    4.5408    1.1752   -0.0384 N   0  0  0  0  0  0  0  0  0  0  0  0 
    3.1598   -1.2612   -0.0356 N   0  0  0  0  0  0  0  0  0  0  0  0 
    0.5606    0.8603   -0.0415 H   0  0  0  0  0  0  0  0  0  0  0  0 
    0.6343   -0.6708    0.8591 H   0  0  0  0  0  0  0  0  0  0  0  0 
    0.6309   -0.6939   -0.9029 H   0  0  0  0  0  0  0  0  0  0  0  0 
    6.3153   -2.4012   -0.0371 H   0  0  0  0  0  0  0  0  0  0  0  0 
    4.9571   -3.1304   -0.9230 H   0  0  0  0  0  0  0  0  0  0  0  0 
    4.9526   -3.1341    0.8390 H   0  0  0  0  0  0  0  0  0  0  0  0 
    2.6755    2.0713   -0.0320 H   0  0  0  0  0  0  0  0  0  0  0  0 
    6.2678    0.0350   -0.0448 H   0  0  0  0  0  0  0  0  0  0  0  0 
  1 10  1  0  0  0  0 
  2  6  1  0  0  0  0 
  2 12  1  0  0  0  0 
  2 14  1  0  0  0  0 
  3  5  1  0  0  0  0 
  3 15  1  0  0  0  0 
  4  6  2  0  0  0  0 
  4  7  1  0  0  0  0 
  5  1  1  0  0  0  0 
  6  8  1  0  0  0  0 
  7  3  2  0  0  0  0 
  8  5  2  0  0  0  0 
  9  1  1  0  0  0  0 
 11  1  1  0  0  0  0 
 13  2  1  0  0  0  0 
 16  4  1  0  0  0  0 
M  END 
>  <HBA> 
2 
 
>  <HBD> 
0 
 
>  <TPSA> 
25.78 
 
>  <cid> 
7938 
 
>  <dipole> 
0.82 
 
>  <excitation_energy_1> 
3.981 
 
>  <excitation_energy_2> 
4.821 
 
>  <excitation_energy_3> 
5.065 
 
>  <excitation_energy_4> 
5.552 
 
>  <homo_energy> 
-6.542 
 
>  <homo_lumo_gap> 
5.339 
 
>  <logP> 
1.093 
 
>  <lumo_energy> 
-1.203 
 
>  <melting_point> 
43.0 
 
>  <molecular_refractivity> 
31.96 
 
>  <oscillator_strength_1> 
0.0056 
 
>  <oscillator_strength_2> 
0.0 
 
>  <oscillator_strength_3> 
0.1394 
 
>  <oscillator_strength_4> 
0.0 
 
>  <open_babel_can_smiles> 
Cc1cncc(n1)C 
 
>  <mulliken_charges> 
16 
1   -0.509976 
2   -0.509843 
3   -0.008522 
4   -0.008661 
5   0.30192 
6   0.301862 
7   -0.374501 
8   -0.486424 
9   0.155121 
10   0.175398 
11   0.175475 
12   0.1551 
13   0.17538 
14   0.175423 
15   0.141113 
16   0.141133 
 
>  <lowdin_charges> 
16 
1   -0.444973 
2   -0.442845 
3   -0.126841 
4   -0.123033 
5   0.043081 
6   0.041532 
7   -0.117383 
8   -0.144406 
9   0.157113 
10   0.171467 
11   0.171651 
12   0.155835 
13   0.171405 
14   0.171476 
15   0.159335 
16   0.156586 
 
$$$$ 
 
