PCCDB-ID:  40116 
public computational chemistry database (PCCDB) project, http://pccdb.org 
 
 21 22  0  0  0  0  0  0  0  0999 V2000 
    2.4305    0.7359    0.0171 C   0  0  0  0  0  0  0  0  0  0  0  0 
    1.2345    1.4147   -0.0006 C   0  0  0  0  0  0  0  0  0  0  0  0 
    2.4514   -0.6795    0.0134 C   0  0  0  0  0  0  0  0  0  0  0  0 
   -1.2546    1.3558   -0.0425 C   0  0  0  0  0  0  0  0  0  0  0  0 
   -2.4315    0.6484   -0.0653 C   0  0  0  0  0  0  0  0  0  0  0  0 
   -1.2131   -1.4436   -0.0457 C   0  0  0  0  0  0  0  0  0  0  0  0 
    0.0060    0.7013   -0.0239 C   0  0  0  0  0  0  0  0  0  0  0  0 
   -2.4271   -0.7754   -0.0662 C   0  0  0  0  0  0  0  0  0  0  0  0 
    0.0087   -0.7298   -0.0291 C   0  0  0  0  0  0  0  0  0  0  0  0 
    1.2727   -1.3952   -0.0087 C   0  0  0  0  0  0  0  0  0  0  0  0 
   -3.6436   -1.4627   -0.1489 N   0  0  0  0  0  0  0  0  0  0  0  0 
    1.2354   -2.7663   -0.0122 O   0  0  0  0  0  0  0  0  0  0  0  0 
    3.3715    1.2785    0.0342 H   0  0  0  0  0  0  0  0  0  0  0  0 
    1.2128    2.5015    0.0021 H   0  0  0  0  0  0  0  0  0  0  0  0 
    3.4037   -1.2074    0.0279 H   0  0  0  0  0  0  0  0  0  0  0  0 
   -1.2778    2.4431   -0.0392 H   0  0  0  0  0  0  0  0  0  0  0  0 
   -3.3839    1.1736   -0.0922 H   0  0  0  0  0  0  0  0  0  0  0  0 
   -1.1859   -2.5288   -0.0476 H   0  0  0  0  0  0  0  0  0  0  0  0 
   -4.4308   -0.9803    0.2677 H   0  0  0  0  0  0  0  0  0  0  0  0 
   -3.6024   -2.4270    0.1584 H   0  0  0  0  0  0  0  0  0  0  0  0 
    2.1460   -3.0993   -0.0030 H   0  0  0  0  0  0  0  0  0  0  0  0 
  1 13  1  0  0  0  0 
  2 14  1  0  0  0  0 
  2  1  2  0  0  0  0 
  3  1  1  0  0  0  0 
  3 15  1  0  0  0  0 
  4 16  1  0  0  0  0 
  4  7  2  0  0  0  0 
  5  4  1  0  0  0  0 
  6  9  2  0  0  0  0 
  7  2  1  0  0  0  0 
  8  5  2  0  0  0  0 
  8  6  1  0  0  0  0 
  9  7  1  0  0  0  0 
  9 10  1  0  0  0  0 
 10  3  2  0  0  0  0 
 11  8  1  0  0  0  0 
 11 20  1  0  0  0  0 
 11 19  1  0  0  0  0 
 12 10  1  0  0  0  0 
 12 21  1  0  0  0  0 
 17  5  1  0  0  0  0 
 18  6  1  0  0  0  0 
M  END 
>  <HBA> 
2 
 
>  <HBD> 
2 
 
>  <TPSA> 
46.25 
 
>  <cid> 
40116 
 
>  <dipole> 
1.38 
 
>  <excitation_energy_1> 
3.781 
 
>  <excitation_energy_2> 
4.289 
 
>  <excitation_energy_3> 
4.414 
 
>  <excitation_energy_4> 
4.576 
 
>  <homo_energy> 
-4.925 
 
>  <homo_lumo_gap> 
4.362 
 
>  <logP> 
2.709 
 
>  <lumo_energy> 
-0.563 
 
>  <melting_point> 
138.78 
 
>  <molecular_refractivity> 
50.38 
 
>  <oscillator_strength_1> 
0.0496 
 
>  <oscillator_strength_2> 
0.0299 
 
>  <oscillator_strength_3> 
0.0004 
 
>  <oscillator_strength_4> 
0.0029 
 
>  <open_babel_can_smiles> 
Nc1ccc2c(c1)c(O)ccc2 
 
>  <mulliken_charges> 
21 
1   -0.146501 
2   -0.193328 
3   -0.202687 
4   -0.208243 
5   -0.163808 
6   -0.241738 
7   0.129669 
8   0.313225 
9   0.085493 
10   0.281514 
11   -0.790487 
12   -0.646437 
13   0.123979 
14   0.120375 
15   0.109867 
16   0.127864 
17   0.119152 
18   0.137002 
19   0.317576 
20   0.320485 
21   0.407029 
 
>  <lowdin_charges> 
21 
1   -0.161434 
2   -0.175211 
3   -0.22451 
4   -0.145772 
5   -0.186017 
6   -0.204374 
7   -0.010106 
8   0.05641 
9   -0.013923 
10   0.098499 
11   -0.488038 
12   -0.382727 
13   0.156666 
14   0.152554 
15   0.150594 
16   0.155192 
17   0.154122 
18   0.162253 
19   0.275079 
20   0.274176 
21   0.356567 
 
$$$$ 
 
