PCCDB-ID:  11782 
public computational chemistry database (PCCDB) project, http://pccdb.org 
 
 21 21  0  0  0  0  0  0  0  0999 V2000 
    0.9811    0.0206   -0.3425 C   0  0  0  0  0  0  0  0  0  0  0  0 
    2.3254   -2.5625   -0.3961 C   0  0  0  0  0  0  0  0  0  0  0  0 
    4.5858    1.0818    0.2753 C   0  0  0  0  0  0  0  0  0  0  0  0 
    3.2065    1.1125    0.0799 C   0  0  0  0  0  0  0  0  0  0  0  0 
    5.2444   -0.1408    0.2646 C   0  0  0  0  0  0  0  0  0  0  0  0 
    2.4758   -0.0602   -0.1381 C   0  0  0  0  0  0  0  0  0  0  0  0 
    3.1388   -1.3087   -0.1677 C   0  0  0  0  0  0  0  0  0  0  0  0 
    4.5345   -1.3342    0.0438 C   0  0  0  0  0  0  0  0  0  0  0  0 
    5.3240   -2.6130   -0.0036 C   0  0  0  0  0  0  0  0  0  0  0  0 
    5.1521   -3.5168   -0.7870 O   0  0  0  0  0  0  0  0  0  0  0  0 
    6.3313   -2.7040    0.9129 O   0  0  0  0  0  0  0  0  0  0  0  0 
    0.6400    1.0600   -0.3388 H   0  0  0  0  0  0  0  0  0  0  0  0 
    0.4340   -0.5127    0.4456 H   0  0  0  0  0  0  0  0  0  0  0  0 
    0.6762   -0.4291   -1.2956 H   0  0  0  0  0  0  0  0  0  0  0  0 
    1.4866   -2.6140    0.3087 H   0  0  0  0  0  0  0  0  0  0  0  0 
    2.9217   -3.4676   -0.3041 H   0  0  0  0  0  0  0  0  0  0  0  0 
    1.8909   -2.5624   -1.4042 H   0  0  0  0  0  0  0  0  0  0  0  0 
    5.1409    2.0030    0.4277 H   0  0  0  0  0  0  0  0  0  0  0  0 
    2.6832    2.0657    0.0909 H   0  0  0  0  0  0  0  0  0  0  0  0 
    6.3252   -0.1696    0.3804 H   0  0  0  0  0  0  0  0  0  0  0  0 
    6.2591   -1.9677    1.5423 H   0  0  0  0  0  0  0  0  0  0  0  0 
  1 12  1  0  0  0  0 
  1  6  1  0  0  0  0 
  1 13  1  0  0  0  0 
  2 16  1  0  0  0  0 
  2  7  1  0  0  0  0 
  2 15  1  0  0  0  0 
  3 18  1  0  0  0  0 
  4 19  1  0  0  0  0 
  4  3  2  0  0  0  0 
  5  3  1  0  0  0  0 
  5 20  1  0  0  0  0 
  6  4  1  0  0  0  0 
  7  6  2  0  0  0  0 
  7  8  1  0  0  0  0 
  8  5  2  0  0  0  0 
  9  8  1  0  0  0  0 
  9 11  1  0  0  0  0 
 10  9  2  0  0  0  0 
 11 21  1  0  0  0  0 
 14  1  1  0  0  0  0 
 17  2  1  0  0  0  0 
M  END 
>  <HBA> 
2 
 
>  <HBD> 
1 
 
>  <TPSA> 
37.3 
 
>  <cid> 
11782 
 
>  <dipole> 
4.57 
 
>  <excitation_energy_1> 
4.817 
 
>  <excitation_energy_2> 
4.9 
 
>  <excitation_energy_3> 
5.471 
 
>  <excitation_energy_4> 
5.935 
 
>  <homo_energy> 
-6.822 
 
>  <homo_lumo_gap> 
5.769 
 
>  <logP> 
2.002 
 
>  <lumo_energy> 
-1.053 
 
>  <melting_point> 
104.32 
 
>  <molecular_refractivity> 
43.33 
 
>  <oscillator_strength_1> 
0.0247 
 
>  <oscillator_strength_2> 
0.0152 
 
>  <oscillator_strength_3> 
0.0527 
 
>  <oscillator_strength_4> 
0.076 
 
>  <open_babel_can_smiles> 
OC(=O)c1cccc(c1C)C 
 
>  <mulliken_charges> 
21 
1   -0.531846 
2   -0.536119 
3   -0.128198 
4   -0.172339 
5   -0.199349 
6   0.123123 
7   0.100016 
8   -0.007012 
9   0.533615 
10   -0.443178 
11   -0.566557 
12   0.157359 
13   0.166163 
14   0.167882 
15   0.153038 
16   0.195089 
17   0.168039 
18   0.137728 
19   0.13152 
20   0.142505 
21   0.408521 
 
>  <lowdin_charges> 
21 
1   -0.441536 
2   -0.449178 
3   -0.158079 
4   -0.153018 
5   -0.170291 
6   -0.001288 
7   0.014906 
8   -0.065883 
9   0.196976 
10   -0.239145 
11   -0.359487 
12   0.15754 
13   0.16329 
14   0.163535 
15   0.157387 
16   0.180259 
17   0.165502 
18   0.162779 
19   0.158946 
20   0.158853 
21   0.357932 
 
$$$$ 
 
