PCCDB-ID:  7945 
public computational chemistry database (PCCDB) project, http://pccdb.org 
 
 23 22  0  0  0  0  0  0  0  0999 V2000 
    1.9651    3.2749   -0.5529 C   0  0  0  0  0  0  0  0  0  0  0  0 
    6.1082   -2.0378    0.7615 C   0  0  0  0  0  0  0  0  0  0  0  0 
    3.6271   -1.6017    1.0269 C   0  0  0  0  0  0  0  0  0  0  0  0 
    3.3117    3.1371   -1.2477 C   0  0  0  0  0  0  0  0  0  0  0  0 
    5.1533    0.1944    0.0804 C   0  0  0  0  0  0  0  0  0  0  0  0 
    4.8814   -1.3144    0.1888 C   0  0  0  0  0  0  0  0  0  0  0  0 
    4.1166    0.9520   -0.7295 C   0  0  0  0  0  0  0  0  0  0  0  0 
    3.3293    0.4554   -1.5082 O   0  0  0  0  0  0  0  0  0  0  0  0 
    4.2072    2.2824   -0.4966 O   0  0  0  0  0  0  0  0  0  0  0  0 
    1.3359    3.9886   -1.0973 H   0  0  0  0  0  0  0  0  0  0  0  0 
    2.0913    3.6395    0.4718 H   0  0  0  0  0  0  0  0  0  0  0  0 
    1.4469    2.3123   -0.5254 H   0  0  0  0  0  0  0  0  0  0  0  0 
    5.9380   -3.1197    0.8068 H   0  0  0  0  0  0  0  0  0  0  0  0 
    6.3305   -1.6952    1.7807 H   0  0  0  0  0  0  0  0  0  0  0  0 
    7.0015   -1.8645    0.1492 H   0  0  0  0  0  0  0  0  0  0  0  0 
    3.4372   -2.6797    1.0871 H   0  0  0  0  0  0  0  0  0  0  0  0 
    2.7425   -1.1299    0.5882 H   0  0  0  0  0  0  0  0  0  0  0  0 
    3.7456   -1.2282    2.0529 H   0  0  0  0  0  0  0  0  0  0  0  0 
    3.8342    4.0956   -1.3014 H   0  0  0  0  0  0  0  0  0  0  0  0 
    3.1964    2.7294   -2.2550 H   0  0  0  0  0  0  0  0  0  0  0  0 
    6.1224    0.3732   -0.4082 H   0  0  0  0  0  0  0  0  0  0  0  0 
    5.2310    0.6584    1.0716 H   0  0  0  0  0  0  0  0  0  0  0  0 
    4.6994   -1.6849   -0.8280 H   0  0  0  0  0  0  0  0  0  0  0  0 
  1 12  1  0  0  0  0 
  1 11  1  0  0  0  0 
  2 13  1  0  0  0  0 
  2 14  1  0  0  0  0 
  3 16  1  0  0  0  0 
  3 18  1  0  0  0  0 
  4  1  1  0  0  0  0 
  4  9  1  0  0  0  0 
  5  6  1  0  0  0  0 
  5 22  1  0  0  0  0 
  6  2  1  0  0  0  0 
  6  3  1  0  0  0  0 
  7  9  1  0  0  0  0 
  7  5  1  0  0  0  0 
  8  7  2  0  0  0  0 
 10  1  1  0  0  0  0 
 15  2  1  0  0  0  0 
 17  3  1  0  0  0  0 
 19  4  1  0  0  0  0 
 20  4  1  0  0  0  0 
 21  5  1  0  0  0  0 
 23  6  1  0  0  0  0 
M  END 
>  <HBA> 
2 
 
>  <HBD> 
0 
 
>  <TPSA> 
26.3 
 
>  <cid> 
7945 
 
>  <dipole> 
1.5 
 
>  <excitation_energy_1> 
5.813 
 
>  <excitation_energy_2> 
6.972 
 
>  <excitation_energy_3> 
7.421 
 
>  <excitation_energy_4> 
7.547 
 
>  <homo_energy> 
-7.276 
 
>  <homo_lumo_gap> 
7.706 
 
>  <logP> 
1.596 
 
>  <lumo_energy> 
0.43 
 
>  <melting_point> 
-14.79 
 
>  <molecular_refractivity> 
37.05 
 
>  <oscillator_strength_1> 
0.0007 
 
>  <oscillator_strength_2> 
0.0238 
 
>  <oscillator_strength_3> 
0.0265 
 
>  <oscillator_strength_4> 
0.0004 
 
>  <open_babel_can_smiles> 
CCOC(=O)CC(C)C 
 
>  <mulliken_charges> 
23 
1   -0.4612 
2   -0.446766 
3   -0.451876 
4   -0.044277 
5   -0.354133 
6   -0.061569 
7   0.623489 
8   -0.484338 
9   -0.46288 
10   0.149628 
11   0.156618 
12   0.17557 
13   0.144916 
14   0.138615 
15   0.139371 
16   0.142262 
17   0.162231 
18   0.133063 
19   0.151472 
20   0.169234 
21   0.169387 
22   0.16245 
23   0.148735 
 
>  <lowdin_charges> 
23 
1   -0.455182 
2   -0.441681 
3   -0.44615 
4   -0.128374 
5   -0.30226 
6   -0.116129 
7   0.202043 
8   -0.273065 
9   -0.198593 
10   0.159652 
11   0.154844 
12   0.164835 
13   0.149056 
14   0.144411 
15   0.147229 
16   0.148356 
17   0.158757 
18   0.141176 
19   0.151421 
20   0.157091 
21   0.169672 
22   0.163169 
23   0.149722 
 
$$$$ 
 
