PCCDB-ID:  36587 
public computational chemistry database (PCCDB) project, http://pccdb.org 
 
 37 39  0  0  1  0  0  0  0  0999 V2000 
    8.1522    0.1301   -1.6645 C   0  0  0  0  0  0  0  0  0  0  0  0 
    0.9273    4.8861   -2.2859 C   0  0  0  0  0  0  0  0  0  0  0  0 
    2.2276    4.6538   -4.4335 C   0  0  0  0  0  0  0  0  0  0  0  0 
    2.9574    6.3183   -2.6875 C   0  0  0  0  0  0  0  0  0  0  0  0 
    2.2938    2.8150   -2.7139 C   0  0  0  0  0  0  0  0  0  0  0  0 
    3.0390    4.4771   -0.9673 C   0  0  0  0  0  0  0  0  0  0  0  0 
    4.3376    4.2560   -3.1174 C   0  0  0  0  0  0  0  0  0  0  0  0 
    4.6403    1.1005   -2.1513 C   0  0  0  0  0  0  0  0  0  0  0  0 
    6.9725    0.8698   -2.2418 C   0  0  0  0  0  0  0  0  0  0  0  0 
    1.4084    3.8980   -3.3670 C   0  0  1  0  0  0  0  0  0  0  0  0 
    2.1469    5.5551   -1.6200 C   0  0  2  0  0  0  0  0  0  0  0  0 
    3.4430    5.3300   -3.7676 C   0  0  1  0  0  0  0  0  0  0  0  0 
    4.4968    2.4538   -1.4337 C   0  0  0  0  0  0  0  0  0  0  0  0 
    3.5263    3.4707   -2.0375 C   0  0  2  0  0  0  0  0  0  0  0  0 
    7.0265    1.7689   -3.0519 O   0  0  0  0  0  0  0  0  0  0  0  0 
    5.1730    2.6963   -0.4546 O   0  0  0  0  0  0  0  0  0  0  0  0 
    5.8062    0.3977   -1.7291 O   0  0  0  0  0  0  0  0  0  0  0  0 
    8.3001    0.4493   -0.6268 H   0  0  0  0  0  0  0  0  0  0  0  0 
    9.0461    0.3615   -2.2449 H   0  0  0  0  0  0  0  0  0  0  0  0 
    7.9697   -0.9483   -1.6561 H   0  0  0  0  0  0  0  0  0  0  0  0 
    0.3268    4.3578   -1.5323 H   0  0  0  0  0  0  0  0  0  0  0  0 
    0.2752    5.6474   -2.7358 H   0  0  0  0  0  0  0  0  0  0  0  0 
    1.5986    5.4071   -4.9271 H   0  0  0  0  0  0  0  0  0  0  0  0 
    2.5637    3.9586   -5.2155 H   0  0  0  0  0  0  0  0  0  0  0  0 
    3.8160    6.8204   -2.2216 H   0  0  0  0  0  0  0  0  0  0  0  0 
    2.3374    7.1010   -3.1459 H   0  0  0  0  0  0  0  0  0  0  0  0 
    2.6060    2.0941   -3.4802 H   0  0  0  0  0  0  0  0  0  0  0  0 
    1.7087    2.2595   -1.9672 H   0  0  0  0  0  0  0  0  0  0  0  0 
    2.4792    3.9446   -0.1866 H   0  0  0  0  0  0  0  0  0  0  0  0 
    3.9050    4.9336   -0.4771 H   0  0  0  0  0  0  0  0  0  0  0  0 
    5.2071    4.7215   -2.6383 H   0  0  0  0  0  0  0  0  0  0  0  0 
    4.7281    3.5683   -3.8776 H   0  0  0  0  0  0  0  0  0  0  0  0 
    4.6505    1.2336   -3.2360 H   0  0  0  0  0  0  0  0  0  0  0  0 
    3.7958    0.4571   -1.8841 H   0  0  0  0  0  0  0  0  0  0  0  0 
    0.5435    3.4140   -3.8390 H   0  0  0  0  0  0  0  0  0  0  0  0 
    1.8052    6.2538   -0.8452 H   0  0  0  0  0  0  0  0  0  0  0  0 
    4.0293    5.8665   -4.5251 H   0  0  0  0  0  0  0  0  0  0  0  0 
  1 20  1  0  0  0  0 
  1 18  1  0  0  0  0 
  2 11  1  0  0  0  0 
  2 21  1  0  0  0  0 
  3 12  1  0  0  0  0 
  3 10  1  0  0  0  0 
  4 25  1  0  0  0  0 
  4 11  1  0  0  0  0 
  5 14  1  0  0  0  0 
  5 28  1  0  0  0  0 
  6 30  1  0  0  0  0 
  6 29  1  0  0  0  0 
  7 31  1  0  0  0  0 
  7 14  1  0  0  0  0 
  8 34  1  0  0  0  0 
  8 17  1  0  0  0  0 
  8 13  1  0  0  0  0 
  9 17  1  0  0  0  0 
  9  1  1  0  0  0  0 
 10 35  1  6  0  0  0 
 10  5  1  0  0  0  0 
 10  2  1  0  0  0  0 
 11  6  1  0  0  0  0 
 11 36  1  1  0  0  0 
 12 37  1  6  0  0  0 
 12  7  1  0  0  0  0 
 12  4  1  0  0  0  0 
 13 16  2  0  0  0  0 
 14 13  1  1  0  0  0 
 14  6  1  0  0  0  0 
 15  9  2  0  0  0  0 
 19  1  1  0  0  0  0 
 22  2  1  0  0  0  0 
 23  3  1  0  0  0  0 
 24  3  1  0  0  0  0 
 26  4  1  0  0  0  0 
 27  5  1  0  0  0  0 
 32  7  1  0  0  0  0 
 33  8  1  0  0  0  0 
M  END 
>  <HBA> 
3 
 
>  <HBD> 
0 
 
>  <TPSA> 
43.37 
 
>  <cid> 
36587 
 
>  <dipole> 
2.32 
 
>  <excitation_energy_1> 
4.314 
 
>  <excitation_energy_2> 
5.828 
 
>  <excitation_energy_3> 
5.915 
 
>  <excitation_energy_4> 
5.99 
 
>  <homo_energy> 
-6.547 
 
>  <homo_lumo_gap> 
6.109 
 
>  <logP> 
2.335 
 
>  <lumo_energy> 
-0.438 
 
>  <melting_point> 
88.38 
 
>  <molecular_refractivity> 
64.3 
 
>  <oscillator_strength_1> 
0.0006 
 
>  <oscillator_strength_2> 
0.0009 
 
>  <oscillator_strength_3> 
0.0025 
 
>  <oscillator_strength_4> 
0.0271 
 
>  <open_babel_can_smiles> 
O=C([C@]12C[C@H]3C[C@@H](C2)C[C@@H](C1)C3)COC(=O)C 
 
>  <mulliken_charges> 
37 
1   -0.528145 
2   -0.265112 
3   -0.266415 
4   -0.266225 
5   -0.293581 
6   -0.269444 
7   -0.28229 
8   -0.133542 
9   0.614536 
10   -0.09119 
11   -0.096031 
12   -0.092384 
13   0.450186 
14   -0.017537 
15   -0.471199 
16   -0.452629 
17   -0.440855 
18   0.196646 
19   0.181968 
20   0.178513 
21   0.126552 
22   0.128057 
23   0.129326 
24   0.126701 
25   0.131686 
26   0.126665 
27   0.130712 
28   0.132683 
29   0.129294 
30   0.154849 
31   0.154405 
32   0.148516 
33   0.183044 
34   0.179188 
35   0.119249 
36   0.120072 
37   0.12373 
 
>  <lowdin_charges> 
37 
1   -0.460281 
2   -0.283854 
3   -0.283429 
4   -0.282891 
5   -0.286271 
6   -0.277148 
7   -0.275445 
8   -0.1712 
9   0.208292 
10   -0.130518 
11   -0.132326 
12   -0.131582 
13   0.155916 
14   -0.029639 
15   -0.26556 
16   -0.225373 
17   -0.17985 
18   0.185444 
19   0.176382 
20   0.174089 
21   0.141373 
22   0.142414 
23   0.143329 
24   0.141008 
25   0.143802 
26   0.141721 
27   0.14263 
28   0.143198 
29   0.144342 
30   0.156872 
31   0.15564 
32   0.15118 
33   0.164956 
34   0.173633 
35   0.14174 
36   0.142624 
37   0.144781 
 
$$$$ 
 
