PCCDB-ID:  73166 
public computational chemistry database (PCCDB) project, http://pccdb.org 
 
 21 22  0  0  0  0  0  0  0  0999 V2000 
    1.0669    0.1433   -0.0602 C   0  0  0  0  0  0  0  0  0  0  0  0 
    7.1329   -0.5949   -0.0112 C   0  0  0  0  0  0  0  0  0  0  0  0 
    7.0811    0.8123   -0.0202 C   0  0  0  0  0  0  0  0  0  0  0  0 
    5.9724   -1.3624   -0.0146 C   0  0  0  0  0  0  0  0  0  0  0  0 
    5.8646    1.4891   -0.0349 C   0  0  0  0  0  0  0  0  0  0  0  0 
    2.8930   -2.5255   -0.0296 C   0  0  0  0  0  0  0  0  0  0  0  0 
    2.5542   -0.0137   -0.0498 C   0  0  0  0  0  0  0  0  0  0  0  0 
    4.7345   -0.7031   -0.0285 C   0  0  0  0  0  0  0  0  0  0  0  0 
    3.3563   -1.1513   -0.0357 C   0  0  0  0  0  0  0  0  0  0  0  0 
    4.7054    0.7114   -0.0391 C   0  0  0  0  0  0  0  0  0  0  0  0 
    3.3674    1.0913   -0.0514 N   0  0  0  0  0  0  0  0  0  0  0  0 
    3.6215   -3.5090   -0.0143 O   0  0  0  0  0  0  0  0  0  0  0  0 
    0.5682   -0.8275   -0.0574 H   0  0  0  0  0  0  0  0  0  0  0  0 
    0.7310    0.6892   -0.9513 H   0  0  0  0  0  0  0  0  0  0  0  0 
    0.7198    0.7012    0.8191 H   0  0  0  0  0  0  0  0  0  0  0  0 
    8.1006   -1.0889   -0.0009 H   0  0  0  0  0  0  0  0  0  0  0  0 
    8.0062    1.3821   -0.0160 H   0  0  0  0  0  0  0  0  0  0  0  0 
    6.0040   -2.4458   -0.0071 H   0  0  0  0  0  0  0  0  0  0  0  0 
    5.8227    2.5751   -0.0420 H   0  0  0  0  0  0  0  0  0  0  0  0 
    1.7881   -2.6582   -0.0403 H   0  0  0  0  0  0  0  0  0  0  0  0 
    3.0359    2.0449   -0.0628 H   0  0  0  0  0  0  0  0  0  0  0  0 
  1 13  1  0  0  0  0 
  1  7  1  0  0  0  0 
  1 15  1  0  0  0  0 
  2 16  1  0  0  0  0 
  3 17  1  0  0  0  0 
  3  2  2  0  0  0  0 
  4  2  1  0  0  0  0 
  4 18  1  0  0  0  0 
  5  3  1  0  0  0  0 
  6 12  2  0  0  0  0 
  7  9  2  0  0  0  0 
  8  4  2  0  0  0  0 
  9  6  1  0  0  0  0 
  9  8  1  0  0  0  0 
 10  5  2  0  0  0  0 
 10  8  1  0  0  0  0 
 11  7  1  0  0  0  0 
 11 10  1  0  0  0  0 
 14  1  1  0  0  0  0 
 19  5  1  0  0  0  0 
 20  6  1  0  0  0  0 
 21 11  1  0  0  0  0 
M  END 
>  <HBA> 
1 
 
>  <HBD> 
1 
 
>  <TPSA> 
32.86 
 
>  <cid> 
73166 
 
>  <dipole> 
5.72 
 
>  <excitation_energy_1> 
3.912 
 
>  <excitation_energy_2> 
4.412 
 
>  <excitation_energy_3> 
4.477 
 
>  <excitation_energy_4> 
4.964 
 
>  <homo_energy> 
-5.793 
 
>  <homo_lumo_gap> 
4.825 
 
>  <logP> 
2.289 
 
>  <lumo_energy> 
-0.969 
 
>  <melting_point> 
134.54 
 
>  <molecular_refractivity> 
48.65 
 
>  <oscillator_strength_1> 
0.0002 
 
>  <oscillator_strength_2> 
0.1419 
 
>  <oscillator_strength_3> 
0.0416 
 
>  <oscillator_strength_4> 
0.0 
 
>  <open_babel_can_smiles> 
O=Cc1c(C)[nH]c2c1cccc2 
 
>  <mulliken_charges> 
21 
1   -0.53878 
2   -0.142328 
3   -0.145299 
4   -0.193608 
5   -0.170071 
6   0.177244 
7   0.321406 
8   0.077352 
9   -0.021703 
10   0.318285 
11   -0.737098 
12   -0.43695 
13   0.187193 
14   0.174204 
15   0.174415 
16   0.127315 
17   0.126671 
18   0.164298 
19   0.123495 
20   0.085869 
21   0.32809 
 
>  <lowdin_charges> 
21 
1   -0.44836 
2   -0.168786 
3   -0.159522 
4   -0.147131 
5   -0.185487 
6   0.041756 
7   0.059639 
8   -0.016348 
9   -0.113436 
10   0.031902 
11   -0.188871 
12   -0.260761 
13   0.175098 
14   0.168708 
15   0.168909 
16   0.157669 
17   0.157871 
18   0.17505 
19   0.154356 
20   0.106653 
21   0.291093 
 
$$$$ 
 
