PCCDB-ID:  27821 
public computational chemistry database (PCCDB) project, http://pccdb.org 
 
 19 18  0  0  0  0  0  0  0  0999 V2000 
    1.6369    1.4552    1.2657 C   0  0  0  0  0  0  0  0  0  0  0  0 
    4.3944   -1.8197    1.5755 C   0  0  0  0  0  0  0  0  0  0  0  0 
    2.5423    1.9291    0.4107 C   0  0  0  0  0  0  0  0  0  0  0  0 
    4.8769   -0.6336    1.2058 C   0  0  0  0  0  0  0  0  0  0  0  0 
    3.1143    1.1352   -0.7364 C   0  0  0  0  0  0  0  0  0  0  0  0 
    5.2047   -0.2684   -0.2182 C   0  0  0  0  0  0  0  0  0  0  0  0 
    5.4027    1.9455   -1.0619 N   0  0  0  0  0  0  0  0  0  0  0  0 
    4.5748    0.9744   -0.6571 N   0  0  0  0  0  0  0  0  0  0  0  0 
    4.8458    2.9735   -1.4428 O   0  0  0  0  0  0  0  0  0  0  0  0 
    1.2319    2.0690    2.0657 H   0  0  0  0  0  0  0  0  0  0  0  0 
    1.2615    0.4360    1.1975 H   0  0  0  0  0  0  0  0  0  0  0  0 
    4.2008   -2.0590    2.6172 H   0  0  0  0  0  0  0  0  0  0  0  0 
    4.1828   -2.6026    0.8494 H   0  0  0  0  0  0  0  0  0  0  0  0 
    2.9070    2.9501    0.4971 H   0  0  0  0  0  0  0  0  0  0  0  0 
    5.0763    0.1366    1.9495 H   0  0  0  0  0  0  0  0  0  0  0  0 
    2.9156    1.6511   -1.6831 H   0  0  0  0  0  0  0  0  0  0  0  0 
    2.6777    0.1334   -0.7731 H   0  0  0  0  0  0  0  0  0  0  0  0 
    4.9172   -1.0864   -0.8928 H   0  0  0  0  0  0  0  0  0  0  0  0 
    6.2802   -0.0942   -0.3401 H   0  0  0  0  0  0  0  0  0  0  0  0 
  1 10  1  0  0  0  0 
  2 12  1  0  0  0  0 
  3 14  1  0  0  0  0 
  3  1  2  0  0  0  0 
  4  2  2  0  0  0  0 
  4 15  1  0  0  0  0 
  5  8  1  0  0  0  0 
  5  3  1  0  0  0  0 
  6  4  1  0  0  0  0 
  7  8  1  0  0  0  0 
  8  6  1  0  0  0  0 
  9  7  1  0  0  0  0 
 11  1  1  0  0  0  0 
 13  2  1  0  0  0  0 
 16  5  1  0  0  0  0 
 17  5  1  0  0  0  0 
 18  6  1  0  0  0  0 
 19  6  1  0  0  0  0 
M  RAD  2   7   2   9   2 
M  END 
>  <HBA> 
3 
 
>  <HBD> 
0 
 
>  <TPSA> 
32.67 
 
>  <cid> 
27821 
 
>  <dipole> 
3.9 
 
>  <excitation_energy_1> 
3.371 
 
>  <excitation_energy_2> 
5.186 
 
>  <excitation_energy_3> 
5.339 
 
>  <excitation_energy_4> 
5.46 
 
>  <homo_energy> 
-6.074 
 
>  <homo_lumo_gap> 
5.17 
 
>  <logP> 
1.342 
 
>  <lumo_energy> 
-0.903 
 
>  <melting_point> 
-46.07 
 
>  <molecular_refractivity> 
37.64 
 
>  <oscillator_strength_1> 
0.0009 
 
>  <oscillator_strength_2> 
0.002 
 
>  <oscillator_strength_3> 
0.0046 
 
>  <oscillator_strength_4> 
0.0128 
 
>  <open_babel_can_smiles> 
[O][N]N(CC=C)CC=C 
 
>  <mulliken_charges> 
19 
1   -0.332248 
2   -0.341234 
3   -0.044529 
4   -0.037135 
5   -0.199404 
6   -0.188349 
7   0.150588 
8   -0.208199 
9   -0.386571 
10   0.148225 
11   0.140652 
12   0.152871 
13   0.142349 
14   0.160857 
15   0.148692 
16   0.189438 
17   0.15824 
18   0.15683 
19   0.188926 
 
>  <lowdin_charges> 
19 
1   -0.328026 
2   -0.328326 
3   -0.151197 
4   -0.156068 
5   -0.207775 
6   -0.195336 
7   0.050076 
8   -0.040016 
9   -0.276868 
10   0.164024 
11   0.155169 
12   0.164644 
13   0.15791 
14   0.1665 
15   0.163757 
16   0.175075 
17   0.160011 
18   0.15279 
19   0.173656 
 
$$$$ 
 
