PCCDB-ID:  67153 
public computational chemistry database (PCCDB) project, http://pccdb.org 
 
 30 29  0  0  0  0  0  0  0  0999 V2000 
    0.6898   -2.2386   -1.0054 C   0  0  0  0  0  0  0  0  0  0  0  0 
    1.2968    0.6494   -3.1985 C   0  0  0  0  0  0  0  0  0  0  0  0 
    6.9815   -0.3867   -1.2965 C   0  0  0  0  0  0  0  0  0  0  0  0 
    7.2845   -0.8982   -3.6177 C   0  0  0  0  0  0  0  0  0  0  0  0 
    1.8604   -1.2651   -0.8551 C   0  0  0  0  0  0  0  0  0  0  0  0 
    1.9859   -0.7261   -3.2637 C   0  0  0  0  0  0  0  0  0  0  0  0 
    5.1016   -1.1649   -2.6290 C   0  0  0  0  0  0  0  0  0  0  0  0 
    3.9694   -0.4852   -1.8423 C   0  0  0  0  0  0  0  0  0  0  0  0 
    6.3529   -0.4073   -2.6113 N   0  0  0  0  0  0  0  0  0  0  0  0 
    2.6922   -1.1725   -2.0572 N   0  0  0  0  0  0  0  0  0  0  0  0 
    0.1919   -2.3764   -0.0390 H   0  0  0  0  0  0  0  0  0  0  0  0 
    1.0460   -3.2135   -1.3557 H   0  0  0  0  0  0  0  0  0  0  0  0 
   -0.0645   -1.8773   -1.7127 H   0  0  0  0  0  0  0  0  0  0  0  0 
    0.8467    0.8886   -4.1691 H   0  0  0  0  0  0  0  0  0  0  0  0 
    2.0045    1.4497   -2.9549 H   0  0  0  0  0  0  0  0  0  0  0  0 
    0.4976    0.6697   -2.4493 H   0  0  0  0  0  0  0  0  0  0  0  0 
    7.8992    0.2100   -1.3404 H   0  0  0  0  0  0  0  0  0  0  0  0 
    7.2489   -1.3977   -0.9267 H   0  0  0  0  0  0  0  0  0  0  0  0 
    6.3202    0.0788   -0.5599 H   0  0  0  0  0  0  0  0  0  0  0  0 
    8.1824   -0.2697   -3.6269 H   0  0  0  0  0  0  0  0  0  0  0  0 
    6.8224   -0.8436   -4.6095 H   0  0  0  0  0  0  0  0  0  0  0  0 
    7.6057   -1.9455   -3.4472 H   0  0  0  0  0  0  0  0  0  0  0  0 
    2.5084   -1.6258   -0.0474 H   0  0  0  0  0  0  0  0  0  0  0  0 
    1.4741   -0.2820   -0.5221 H   0  0  0  0  0  0  0  0  0  0  0  0 
    2.7121   -0.7216   -4.0845 H   0  0  0  0  0  0  0  0  0  0  0  0 
    1.2429   -1.4870   -3.5302 H   0  0  0  0  0  0  0  0  0  0  0  0 
    4.7918   -1.2568   -3.6764 H   0  0  0  0  0  0  0  0  0  0  0  0 
    5.2296   -2.1979   -2.2487 H   0  0  0  0  0  0  0  0  0  0  0  0 
    3.9395    0.5824   -2.1176 H   0  0  0  0  0  0  0  0  0  0  0  0 
    4.1939   -0.5201   -0.7713 H   0  0  0  0  0  0  0  0  0  0  0  0 
  1  5  1  0  0  0  0 
  1 11  1  0  0  0  0 
  2 15  1  0  0  0  0 
  2 16  1  0  0  0  0 
  3 18  1  0  0  0  0 
  3 19  1  0  0  0  0 
  4 22  1  0  0  0  0 
  4  9  1  0  0  0  0 
  5 24  1  0  0  0  0 
  5 23  1  0  0  0  0 
  6  2  1  0  0  0  0 
  6 10  1  0  0  0  0 
  7  9  1  0  0  0  0 
  7 28  1  0  0  0  0 
  7  8  1  0  0  0  0 
  8 30  1  0  0  0  0 
  9  3  1  0  0  0  0 
 10  8  1  0  0  0  0 
 10  5  1  0  0  0  0 
 12  1  1  0  0  0  0 
 13  1  1  0  0  0  0 
 14  2  1  0  0  0  0 
 17  3  1  0  0  0  0 
 20  4  1  0  0  0  0 
 21  4  1  0  0  0  0 
 25  6  1  0  0  0  0 
 26  6  1  0  0  0  0 
 27  7  1  0  0  0  0 
 29  8  1  0  0  0  0 
M  END 
>  <HBA> 
2 
 
>  <HBD> 
0 
 
>  <TPSA> 
6.48 
 
>  <cid> 
67153 
 
>  <dipole> 
0.28 
 
>  <excitation_energy_1> 
4.994 
 
>  <excitation_energy_2> 
5.287 
 
>  <excitation_energy_3> 
5.302 
 
>  <excitation_energy_4> 
5.373 
 
>  <homo_energy> 
-5.385 
 
>  <homo_lumo_gap> 
7.54 
 
>  <logP> 
0.89 
 
>  <lumo_energy> 
2.155 
 
>  <melting_point> 
-22.62 
 
>  <molecular_refractivity> 
46.36 
 
>  <oscillator_strength_1> 
0.0102 
 
>  <oscillator_strength_2> 
0.0124 
 
>  <oscillator_strength_3> 
0.0135 
 
>  <oscillator_strength_4> 
0.0106 
 
>  <open_babel_can_smiles> 
CCN(CCN(C)C)CC 
 
>  <mulliken_charges> 
30 
1   -0.456227 
2   -0.458176 
3   -0.300523 
4   -0.2915 
5   -0.109312 
6   -0.137808 
7   -0.105686 
8   -0.13691 
9   -0.371021 
10   -0.384104 
11   0.142031 
12   0.155091 
13   0.147491 
14   0.141698 
15   0.151063 
16   0.147713 
17   0.146843 
18   0.115671 
19   0.152062 
20   0.144983 
21   0.147006 
22   0.11628 
23   0.13651 
24   0.112899 
25   0.138357 
26   0.142517 
27   0.135084 
28   0.113319 
29   0.132646 
30   0.132 
 
>  <lowdin_charges> 
30 
1   -0.452584 
2   -0.467066 
3   -0.359626 
4   -0.353666 
5   -0.198352 
6   -0.20569 
7   -0.203326 
8   -0.201849 
9   -0.185763 
10   -0.192046 
11   0.152596 
12   0.153945 
13   0.149143 
14   0.152347 
15   0.151012 
16   0.149026 
17   0.149739 
18   0.118669 
19   0.150859 
20   0.148001 
21   0.147755 
22   0.117946 
23   0.143899 
24   0.116187 
25   0.144367 
26   0.144872 
27   0.142 
28   0.117874 
29   0.128641 
30   0.141091 
 
$$$$ 
 
