PCCDB-ID:  8017 
public computational chemistry database (PCCDB) project, http://pccdb.org 
 
 13 12  0  0  0  0  0  0  0  0999 V2000 
    0.8707   -0.0256    0.1600 C   0  0  0  0  0  0  0  0  0  0  0  0 
    0.2321   -0.8683    1.2634 C   0  0  0  0  0  0  0  0  0  0  0  0 
    2.9810    0.6867   -0.7337 N   0  0  0  0  0  0  0  0  0  0  0  0 
    2.3285   -0.1805    0.2676 N   0  0  0  0  0  0  0  0  0  0  0  0 
    0.7216   -0.4912    2.5366 O   0  0  0  0  0  0  0  0  0  0  0  0 
    0.6356    1.0304    0.3463 H   0  0  0  0  0  0  0  0  0  0  0  0 
    0.4779   -0.2891   -0.8354 H   0  0  0  0  0  0  0  0  0  0  0  0 
    0.4177   -1.9398    1.0620 H   0  0  0  0  0  0  0  0  0  0  0  0 
   -0.8536   -0.7243    1.2689 H   0  0  0  0  0  0  0  0  0  0  0  0 
    3.9705    0.6573   -0.4735 H   0  0  0  0  0  0  0  0  0  0  0  0 
    2.6990    1.6318   -0.4593 H   0  0  0  0  0  0  0  0  0  0  0  0 
    2.5405   -1.1220   -0.0703 H   0  0  0  0  0  0  0  0  0  0  0  0 
    1.6757   -0.3466    2.3957 H   0  0  0  0  0  0  0  0  0  0  0  0 
  1  4  1  0  0  0  0 
  1  6  1  0  0  0  0 
  1  2  1  0  0  0  0 
  2  9  1  0  0  0  0 
  2  5  1  0  0  0  0 
  3 10  1  0  0  0  0 
  3 11  1  0  0  0  0 
  3  4  1  0  0  0  0 
  7  1  1  0  0  0  0 
  8  2  1  0  0  0  0 
 12  4  1  0  0  0  0 
 13  5  1  0  0  0  0 
M  END 
>  <HBA> 
3 
 
>  <HBD> 
3 
 
>  <TPSA> 
58.28 
 
>  <cid> 
8017 
 
>  <dipole> 
1.82 
 
>  <excitation_energy_1> 
5.061 
 
>  <excitation_energy_2> 
5.598 
 
>  <excitation_energy_3> 
5.954 
 
>  <excitation_energy_4> 
6.16 
 
>  <homo_energy> 
-5.736 
 
>  <homo_lumo_gap> 
7.712 
 
>  <logP> 
-0.467 
 
>  <lumo_energy> 
1.976 
 
>  <melting_point> 
76.14 
 
>  <molecular_refractivity> 
18.4 
 
>  <oscillator_strength_1> 
0.0043 
 
>  <oscillator_strength_2> 
0.0176 
 
>  <oscillator_strength_3> 
0.0249 
 
>  <oscillator_strength_4> 
0.0443 
 
>  <open_babel_can_smiles> 
NNCCO 
 
>  <mulliken_charges> 
13 
1   -0.147306 
2   -0.022985 
3   -0.58637 
4   -0.488432 
5   -0.626697 
6   0.147955 
7   0.13602 
8   0.113024 
9   0.145863 
10   0.308735 
11   0.307436 
12   0.314281 
13   0.398475 
 
>  <lowdin_charges> 
13 
1   -0.227094 
2   -0.132337 
3   -0.487961 
4   -0.324951 
5   -0.472865 
6   0.143794 
7   0.135255 
8   0.118864 
9   0.146947 
10   0.254852 
11   0.254331 
12   0.255817 
13   0.335348 
 
$$$$ 
 
