PCCDB-ID:  16053 
public computational chemistry database (PCCDB) project, http://pccdb.org 
 
 26 28  0  0  0  0  0  0  0  0999 V2000 
   -3.0277   -1.2029    0.0469 C   0  0  0  0  0  0  0  0  0  0  0  0 
    3.0260   -1.2021   -0.0224 C   0  0  0  0  0  0  0  0  0  0  0  0 
   -1.6660   -1.4984    0.0310 C   0  0  0  0  0  0  0  0  0  0  0  0 
    1.6612   -1.4995   -0.0080 C   0  0  0  0  0  0  0  0  0  0  0  0 
   -0.0025    1.8246    0.0285 C   0  0  0  0  0  0  0  0  0  0  0  0 
   -2.5412    1.1758    0.0548 C   0  0  0  0  0  0  0  0  0  0  0  0 
    2.5374    1.1824   -0.0038 C   0  0  0  0  0  0  0  0  0  0  0  0 
   -1.1875    0.8770    0.0383 C   0  0  0  0  0  0  0  0  0  0  0  0 
    1.1848    0.8802    0.0102 C   0  0  0  0  0  0  0  0  0  0  0  0 
   -3.4832    0.1290    0.0587 C   0  0  0  0  0  0  0  0  0  0  0  0 
    3.4627    0.1286   -0.0203 C   0  0  0  0  0  0  0  0  0  0  0  0 
   -0.7341   -0.4586    0.0263 C   0  0  0  0  0  0  0  0  0  0  0  0 
    0.7328   -0.4585    0.0084 C   0  0  0  0  0  0  0  0  0  0  0  0 
   -4.8536    0.4096    0.1367 N   0  0  0  0  0  0  0  0  0  0  0  0 
    4.7918    0.4655   -0.0340 O   0  0  0  0  0  0  0  0  0  0  0  0 
   -3.7558   -2.0112    0.0541 H   0  0  0  0  0  0  0  0  0  0  0  0 
    3.7576   -2.0085   -0.0353 H   0  0  0  0  0  0  0  0  0  0  0  0 
   -1.3435   -2.5367    0.0195 H   0  0  0  0  0  0  0  0  0  0  0  0 
    1.3381   -2.5374   -0.0094 H   0  0  0  0  0  0  0  0  0  0  0  0 
    0.0080    2.4794    0.9109 H   0  0  0  0  0  0  0  0  0  0  0  0 
   -0.0120    2.4865   -0.8487 H   0  0  0  0  0  0  0  0  0  0  0  0 
   -2.8854    2.2087    0.0678 H   0  0  0  0  0  0  0  0  0  0  0  0 
    2.9040    2.2050   -0.0025 H   0  0  0  0  0  0  0  0  0  0  0  0 
   -5.4539   -0.3210   -0.2267 H   0  0  0  0  0  0  0  0  0  0  0  0 
   -5.1195    1.3146   -0.2326 H   0  0  0  0  0  0  0  0  0  0  0  0 
    5.3191   -0.3482   -0.0427 H   0  0  0  0  0  0  0  0  0  0  0  0 
  1 16  1  0  0  0  0 
  1 10  2  0  0  0  0 
  2 11  2  0  0  0  0 
  2  4  1  0  0  0  0 
  3  1  1  0  0  0  0 
  4 13  2  0  0  0  0 
  5  8  1  0  0  0  0 
  5 20  1  0  0  0  0 
  6 10  1  0  0  0  0 
  6 22  1  0  0  0  0 
  7 23  1  0  0  0  0 
  7  9  2  0  0  0  0 
  8  6  2  0  0  0  0 
  9  5  1  0  0  0  0 
 10 14  1  0  0  0  0 
 11  7  1  0  0  0  0 
 12  3  2  0  0  0  0 
 12  8  1  0  0  0  0 
 13  9  1  0  0  0  0 
 13 12  1  0  0  0  0 
 15 11  1  0  0  0  0 
 17  2  1  0  0  0  0 
 18  3  1  0  0  0  0 
 19  4  1  0  0  0  0 
 21  5  1  0  0  0  0 
 24 14  1  0  0  0  0 
 25 14  1  0  0  0  0 
 26 15  1  0  0  0  0 
M  END 
>  <HBA> 
2 
 
>  <HBD> 
2 
 
>  <TPSA> 
46.25 
 
>  <cid> 
16053 
 
>  <dipole> 
1.77 
 
>  <excitation_energy_1> 
3.844 
 
>  <excitation_energy_2> 
4.282 
 
>  <excitation_energy_3> 
4.367 
 
>  <excitation_energy_4> 
4.432 
 
>  <homo_energy> 
-4.8 
 
>  <homo_lumo_gap> 
4.561 
 
>  <logP> 
3.127 
 
>  <lumo_energy> 
-0.239 
 
>  <melting_point> 
164.64 
 
>  <molecular_refractivity> 
61.32 
 
>  <oscillator_strength_1> 
0.0558 
 
>  <oscillator_strength_2> 
0.3934 
 
>  <oscillator_strength_3> 
0.1642 
 
>  <oscillator_strength_4> 
0.0017 
 
>  <open_babel_can_smiles> 
Nc1ccc2c(c1)Cc1c2ccc(c1)O 
 
>  <mulliken_charges> 
26 
1   -0.185476 
2   -0.206627 
3   -0.202213 
4   -0.202329 
5   -0.421759 
6   -0.257526 
7   -0.246149 
8   0.102656 
9   0.103922 
10   0.319354 
11   0.360446 
12   0.084492 
13   0.088394 
14   -0.790688 
15   -0.650072 
16   0.113365 
17   0.112793 
18   0.124121 
19   0.127251 
20   0.171858 
21   0.169801 
22   0.111583 
23   0.131769 
24   0.317844 
25   0.317938 
26   0.405252 
 
>  <lowdin_charges> 
26 
1   -0.201669 
2   -0.217089 
3   -0.152882 
4   -0.155012 
5   -0.274105 
6   -0.206371 
7   -0.192824 
8   0.003686 
9   0.003509 
10   0.06031 
11   0.101596 
12   -0.034681 
13   -0.026969 
14   -0.492354 
15   -0.385195 
16   0.152342 
17   0.151856 
18   0.154285 
19   0.155722 
20   0.168908 
21   0.167902 
22   0.149902 
23   0.163899 
24   0.275318 
25   0.273757 
26   0.356159 
 
$$$$ 
 
