PCCDB-ID:  20095 
public computational chemistry database (PCCDB) project, http://pccdb.org 
 
 28 28  0  0  0  0  0  0  0  0999 V2000 
    3.2118   -1.7059   -0.2753 C   0  0  0  0  0  0  0  0  0  0  0  0 
    1.4078   -0.0797    0.3274 C   0  0  0  0  0  0  0  0  0  0  0  0 
    3.3798   -0.3119    1.8527 C   0  0  0  0  0  0  0  0  0  0  0  0 
    5.9509    0.2550   -0.2552 C   0  0  0  0  0  0  0  0  0  0  0  0 
    5.1315    2.2096   -1.4360 C   0  0  0  0  0  0  0  0  0  0  0  0 
    7.2489    0.6149   -0.5850 C   0  0  0  0  0  0  0  0  0  0  0  0 
    6.4241    2.5666   -1.7644 C   0  0  0  0  0  0  0  0  0  0  0  0 
    4.8515    1.0447   -0.6723 C   0  0  0  0  0  0  0  0  0  0  0  0 
    7.4885    1.7652   -1.3369 C   0  0  0  0  0  0  0  0  0  0  0  0 
    2.9249   -0.3380    0.3786 C   0  0  0  0  0  0  0  0  0  0  0  0 
    3.5388    0.7639   -0.3913 N   0  0  0  0  0  0  0  0  0  0  0  0 
    8.8502    2.1338   -1.6781 N   0  0  0  0  0  0  0  0  0  0  0  0 
    9.7659    1.4052   -1.2813 O   0  0  0  0  0  0  0  0  0  0  0  0 
    9.0222    3.1579   -2.3481 O   0  0  0  0  0  0  0  0  0  0  0  0 
    2.6829   -2.4985    0.2657 H   0  0  0  0  0  0  0  0  0  0  0  0 
    4.2754   -1.9570   -0.2746 H   0  0  0  0  0  0  0  0  0  0  0  0 
    2.8680   -1.7094   -1.3149 H   0  0  0  0  0  0  0  0  0  0  0  0 
    0.8718   -0.8532    0.8850 H   0  0  0  0  0  0  0  0  0  0  0  0 
    1.0413   -0.0931   -0.7060 H   0  0  0  0  0  0  0  0  0  0  0  0 
    1.1589    0.8904    0.7746 H   0  0  0  0  0  0  0  0  0  0  0  0 
    2.8801   -1.1089    2.4147 H   0  0  0  0  0  0  0  0  0  0  0  0 
    3.1226    0.6476    2.3136 H   0  0  0  0  0  0  0  0  0  0  0  0 
    4.4579   -0.4552    1.9597 H   0  0  0  0  0  0  0  0  0  0  0  0 
    5.7962   -0.6418    0.3285 H   0  0  0  0  0  0  0  0  0  0  0  0 
    4.3045    2.8338   -1.7673 H   0  0  0  0  0  0  0  0  0  0  0  0 
    8.0890    0.0103   -0.2649 H   0  0  0  0  0  0  0  0  0  0  0  0 
    6.6302    3.4560   -2.3473 H   0  0  0  0  0  0  0  0  0  0  0  0 
    2.8815    1.4378   -0.7576 H   0  0  0  0  0  0  0  0  0  0  0  0 
  1 16  1  0  0  0  0 
  1 15  1  0  0  0  0 
  1 10  1  0  0  0  0 
  2 10  1  0  0  0  0 
  2 20  1  0  0  0  0 
  2 18  1  0  0  0  0 
  3 23  1  0  0  0  0 
  3 22  1  0  0  0  0 
  3 21  1  0  0  0  0 
  4 24  1  0  0  0  0 
  5  8  1  0  0  0  0 
  6 26  1  0  0  0  0 
  6  4  1  0  0  0  0 
  7  5  2  0  0  0  0 
  7  9  1  0  0  0  0 
  8 11  1  0  0  0  0 
  8  4  2  0  0  0  0 
  9  6  2  0  0  0  0 
 10  3  1  0  0  0  0 
 11 10  1  0  0  0  0 
 12  9  1  0  0  0  0 
 12 13  2  0  0  0  0 
 14 12  2  0  0  0  0 
 17  1  1  0  0  0  0 
 19  2  1  0  0  0  0 
 25  5  1  0  0  0  0 
 27  7  1  0  0  0  0 
 28 11  1  0  0  0  0 
M  END 
>  <HBA> 
1 
 
>  <HBD> 
1 
 
>  <TPSA> 
57.85 
 
>  <cid> 
20095 
 
>  <dipole> 
8.3 
 
>  <excitation_energy_1> 
3.671 
 
>  <excitation_energy_2> 
3.782 
 
>  <excitation_energy_3> 
4.359 
 
>  <excitation_energy_4> 
4.427 
 
>  <homo_energy> 
-5.842 
 
>  <homo_lumo_gap> 
4.057 
 
>  <logP> 
3.401 
 
>  <lumo_energy> 
-1.785 
 
>  <melting_point> 
86.7 
 
>  <molecular_refractivity> 
59.03 
 
>  <oscillator_strength_1> 
0.4274 
 
>  <oscillator_strength_2> 
0.0001 
 
>  <oscillator_strength_3> 
0.0004 
 
>  <oscillator_strength_4> 
0.0004 
 
>  <open_babel_can_smiles> 
CC(Nc1ccc(cc1)N(=O)=O)(C)C 
 
>  <mulliken_charges> 
28 
1   -0.444135 
2   -0.482063 
3   -0.443985 
4   -0.193382 
5   -0.214934 
6   -0.163037 
7   -0.151544 
8   0.424665 
9   0.272343 
10   0.238234 
11   -0.706426 
12   0.363258 
13   -0.416568 
14   -0.415451 
15   0.147669 
16   0.158389 
17   0.153471 
18   0.162406 
19   0.15352 
20   0.152336 
21   0.147595 
22   0.15241 
23   0.158575 
24   0.138438 
25   0.128576 
26   0.177019 
27   0.177017 
28   0.325603 
 
>  <lowdin_charges> 
28 
1   -0.448452 
2   -0.447951 
3   -0.449666 
4   -0.210277 
5   -0.200968 
6   -0.125793 
7   -0.127569 
8   0.086782 
9   -0.033848 
10   0.082107 
11   -0.270838 
12   0.309567 
13   -0.271212 
14   -0.270181 
15   0.155691 
16   0.155072 
17   0.155613 
18   0.16384 
19   0.152576 
20   0.152677 
21   0.155589 
22   0.15611 
23   0.1553 
24   0.163698 
25   0.158125 
26   0.186065 
27   0.185674 
28   0.282272 
 
$$$$ 
 
