PCCDB-ID:  12512 
public computational chemistry database (PCCDB) project, http://pccdb.org 
 
 21 20  0  0  0  0  0  0  0  0999 V2000 
    2.9351   -0.3788   -0.8621 C   0  0  0  0  0  0  0  0  0  0  0  0 
    6.1937    0.5010    1.9165 C   0  0  0  0  0  0  0  0  0  0  0  0 
    6.7261    1.6892   -0.2588 C   0  0  0  0  0  0  0  0  0  0  0  0 
    5.3361    2.8301    1.5029 C   0  0  0  0  0  0  0  0  0  0  0  0 
    4.3648   -0.1937   -0.3728 C   0  0  0  0  0  0  0  0  0  0  0  0 
    5.6811    1.4862    0.8509 C   0  0  0  0  0  0  0  0  0  0  0  0 
    4.4217    1.0521    0.3032 O   0  0  0  0  0  0  0  0  0  0  0  0 
    2.8317   -1.3320   -1.3931 H   0  0  0  0  0  0  0  0  0  0  0  0 
    2.6574    0.4324   -1.5433 H   0  0  0  0  0  0  0  0  0  0  0  0 
    2.2357   -0.3712   -0.0201 H   0  0  0  0  0  0  0  0  0  0  0  0 
    7.0718    0.9111    2.4282 H   0  0  0  0  0  0  0  0  0  0  0  0 
    6.4886   -0.4602    1.4816 H   0  0  0  0  0  0  0  0  0  0  0  0 
    5.4161    0.3169    2.6656 H   0  0  0  0  0  0  0  0  0  0  0  0 
    7.6303    2.1569    0.1464 H   0  0  0  0  0  0  0  0  0  0  0  0 
    6.3239    2.3412   -1.0422 H   0  0  0  0  0  0  0  0  0  0  0  0 
    7.0274    0.7424   -0.7197 H   0  0  0  0  0  0  0  0  0  0  0  0 
    6.2209    3.2795    1.9669 H   0  0  0  0  0  0  0  0  0  0  0  0 
    4.5696    2.6897    2.2718 H   0  0  0  0  0  0  0  0  0  0  0  0 
    4.9424    3.5252    0.7538 H   0  0  0  0  0  0  0  0  0  0  0  0 
    5.0573   -0.2190   -1.2285 H   0  0  0  0  0  0  0  0  0  0  0  0 
    4.6436   -1.0218    0.2970 H   0  0  0  0  0  0  0  0  0  0  0  0 
  1  5  1  0  0  0  0 
  1 10  1  0  0  0  0 
  2 11  1  0  0  0  0 
  2 13  1  0  0  0  0 
  3 14  1  0  0  0  0 
  3  6  1  0  0  0  0 
  4 17  1  0  0  0  0 
  4 18  1  0  0  0  0 
  5 21  1  0  0  0  0 
  5  7  1  0  0  0  0 
  6  4  1  0  0  0  0 
  6  2  1  0  0  0  0 
  7  6  1  0  0  0  0 
  8  1  1  0  0  0  0 
  9  1  1  0  0  0  0 
 12  2  1  0  0  0  0 
 15  3  1  0  0  0  0 
 16  3  1  0  0  0  0 
 19  4  1  0  0  0  0 
 20  5  1  0  0  0  0 
M  END 
>  <HBA> 
1 
 
>  <HBD> 
0 
 
>  <TPSA> 
9.23 
 
>  <cid> 
12512 
 
>  <dipole> 
1.07 
 
>  <excitation_energy_1> 
6.229 
 
>  <excitation_energy_2> 
6.747 
 
>  <excitation_energy_3> 
6.909 
 
>  <excitation_energy_4> 
6.95 
 
>  <homo_energy> 
-6.626 
 
>  <homo_lumo_gap> 
8.863 
 
>  <logP> 
1.821 
 
>  <lumo_energy> 
2.237 
 
>  <melting_point> 
-24.49 
 
>  <molecular_refractivity> 
32.08 
 
>  <oscillator_strength_1> 
0.0015 
 
>  <oscillator_strength_2> 
0.0117 
 
>  <oscillator_strength_3> 
0.0086 
 
>  <oscillator_strength_4> 
0.0047 
 
>  <open_babel_can_smiles> 
CCOC(C)(C)C 
 
>  <mulliken_charges> 
21 
1   -0.450133 
2   -0.461902 
3   -0.460758 
4   -0.44474 
5   -0.007232 
6   0.336227 
7   -0.499065 
8   0.137972 
9   0.15486 
10   0.155175 
11   0.141556 
12   0.142277 
13   0.150885 
14   0.141273 
15   0.150762 
16   0.142109 
17   0.134182 
18   0.149929 
19   0.149892 
20   0.118122 
21   0.118608 
 
>  <lowdin_charges> 
21 
1   -0.448474 
2   -0.458649 
3   -0.458874 
4   -0.44609 
5   -0.12918 
6   0.131302 
7   -0.279873 
8   0.150724 
9   0.155764 
10   0.155622 
11   0.15383 
12   0.148653 
13   0.155596 
14   0.153498 
15   0.155856 
16   0.148781 
17   0.148466 
18   0.15557 
19   0.155989 
20   0.125374 
21   0.126115 
 
$$$$ 
 
