PCCDB-ID:  12304 
public computational chemistry database (PCCDB) project, http://pccdb.org 
 
 21 20  0  0  0  0  0  0  0  0999 V2000 
    1.1064   -0.2123    0.2791 C   0  0  0  0  0  0  0  0  0  0  0  0 
    6.0662    2.1440   -2.3347 C   0  0  0  0  0  0  0  0  0  0  0  0 
    4.4804    0.9638   -3.9249 C   0  0  0  0  0  0  0  0  0  0  0  0 
    2.5942    0.0237    0.0021 C   0  0  0  0  0  0  0  0  0  0  0  0 
    2.8364    0.7450   -1.3192 C   0  0  0  0  0  0  0  0  0  0  0  0 
    4.6247    1.7195   -2.5995 C   0  0  0  0  0  0  0  0  0  0  0  0 
    4.2329    0.9178   -1.4846 O   0  0  0  0  0  0  0  0  0  0  0  0 
    0.9610   -0.7269    1.2350 H   0  0  0  0  0  0  0  0  0  0  0  0 
    0.6461   -0.8290   -0.5027 H   0  0  0  0  0  0  0  0  0  0  0  0 
    0.5525    0.7335    0.3242 H   0  0  0  0  0  0  0  0  0  0  0  0 
    6.4336    2.7967   -3.1343 H   0  0  0  0  0  0  0  0  0  0  0  0 
    6.7163    1.2635   -2.2798 H   0  0  0  0  0  0  0  0  0  0  0  0 
    6.1370    2.6802   -1.3833 H   0  0  0  0  0  0  0  0  0  0  0  0 
    4.8087    1.5894   -4.7630 H   0  0  0  0  0  0  0  0  0  0  0  0 
    3.4425    0.6714   -4.1166 H   0  0  0  0  0  0  0  0  0  0  0  0 
    5.0943    0.0559   -3.9095 H   0  0  0  0  0  0  0  0  0  0  0  0 
    3.1326   -0.9320   -0.0207 H   0  0  0  0  0  0  0  0  0  0  0  0 
    3.0436    0.6164    0.8084 H   0  0  0  0  0  0  0  0  0  0  0  0 
    2.3294    1.7264   -1.3173 H   0  0  0  0  0  0  0  0  0  0  0  0 
    2.4040    0.1608   -2.1486 H   0  0  0  0  0  0  0  0  0  0  0  0 
    3.9849    2.6191   -2.6296 H   0  0  0  0  0  0  0  0  0  0  0  0 
  1 10  1  0  0  0  0 
  1  8  1  0  0  0  0 
  2 12  1  0  0  0  0 
  2 13  1  0  0  0  0 
  3 16  1  0  0  0  0 
  3  6  1  0  0  0  0 
  4  1  1  0  0  0  0 
  4 18  1  0  0  0  0 
  5 19  1  0  0  0  0 
  5  4  1  0  0  0  0 
  6  2  1  0  0  0  0 
  6  7  1  0  0  0  0 
  7  5  1  0  0  0  0 
  9  1  1  0  0  0  0 
 11  2  1  0  0  0  0 
 14  3  1  0  0  0  0 
 15  3  1  0  0  0  0 
 17  4  1  0  0  0  0 
 20  5  1  0  0  0  0 
 21  6  1  0  0  0  0 
M  END 
>  <HBA> 
1 
 
>  <HBD> 
0 
 
>  <TPSA> 
9.23 
 
>  <cid> 
12304 
 
>  <dipole> 
0.99 
 
>  <excitation_energy_1> 
6.407 
 
>  <excitation_energy_2> 
6.781 
 
>  <excitation_energy_3> 
6.889 
 
>  <excitation_energy_4> 
6.945 
 
>  <homo_energy> 
-6.672 
 
>  <homo_lumo_gap> 
9.097 
 
>  <logP> 
1.821 
 
>  <lumo_energy> 
2.425 
 
>  <melting_point> 
-35.51 
 
>  <molecular_refractivity> 
32.04 
 
>  <oscillator_strength_1> 
0.0105 
 
>  <oscillator_strength_2> 
0.0045 
 
>  <oscillator_strength_3> 
0.0143 
 
>  <oscillator_strength_4> 
0.0203 
 
>  <open_babel_can_smiles> 
CCCOC(C)C 
 
>  <mulliken_charges> 
21 
1   -0.452027 
2   -0.446668 
3   -0.455798 
4   -0.263572 
5   0.00087 
6   0.165117 
7   -0.486522 
8   0.148813 
9   0.143466 
10   0.143207 
11   0.13776 
12   0.151801 
13   0.152753 
14   0.140362 
15   0.145841 
16   0.151288 
17   0.145748 
18   0.14453 
19   0.110976 
20   0.115343 
21   0.106712 
 
>  <lowdin_charges> 
21 
1   -0.446469 
2   -0.449092 
3   -0.460433 
4   -0.27848 
5   -0.129991 
6   0.010509 
7   -0.277211 
8   0.153459 
9   0.148166 
10   0.146937 
11   0.151351 
12   0.154774 
13   0.156285 
14   0.152969 
15   0.149604 
16   0.153979 
17   0.148256 
18   0.14876 
19   0.121418 
20   0.123833 
21   0.121374 
 
$$$$ 
 
