PCCDB-ID:  16899 
public computational chemistry database (PCCDB) project, http://pccdb.org 
 
 27 26  0  0  0  0  0  0  0  0999 V2000 
    2.9521    1.2351    1.7800 C   0  0  0  0  0  0  0  0  0  0  0  0 
    4.1856    1.3028    0.8741 C   0  0  0  0  0  0  0  0  0  0  0  0 
    4.1845    0.2346   -0.2271 C   0  0  0  0  0  0  0  0  0  0  0  0 
    5.4123    0.3005   -1.1442 C   0  0  0  0  0  0  0  0  0  0  0  0 
    5.3986   -0.7841   -2.2275 C   0  0  0  0  0  0  0  0  0  0  0  0 
    6.5621   -0.8054   -3.1770 C   0  0  0  0  0  0  0  0  0  0  0  0 
    7.6155    0.0340   -3.1909 C   0  0  0  0  0  0  0  0  0  0  0  0 
    8.6886   -0.0691   -4.1562 C   0  0  0  0  0  0  0  0  0  0  0  0 
    9.7658    0.7450   -4.2238 C   0  0  0  0  0  0  0  0  0  0  0  0 
   10.7973    0.5542   -5.2436 C   0  0  0  0  0  0  0  0  0  0  0  0 
   11.7913    1.2497   -5.3651 O   0  0  0  0  0  0  0  0  0  0  0  0 
    2.9864    2.0048    2.5592 H   0  0  0  0  0  0  0  0  0  0  0  0 
    2.8784    0.2603    2.2776 H   0  0  0  0  0  0  0  0  0  0  0  0 
    2.0294    1.3834    1.2056 H   0  0  0  0  0  0  0  0  0  0  0  0 
    5.0943    1.1941    1.4830 H   0  0  0  0  0  0  0  0  0  0  0  0 
    4.2467    2.2986    0.4125 H   0  0  0  0  0  0  0  0  0  0  0  0 
    3.2719    0.3397   -0.8326 H   0  0  0  0  0  0  0  0  0  0  0  0 
    4.1279   -0.7623    0.2350 H   0  0  0  0  0  0  0  0  0  0  0  0 
    6.3249    0.2043   -0.5396 H   0  0  0  0  0  0  0  0  0  0  0  0 
    5.4590    1.2912   -1.6175 H   0  0  0  0  0  0  0  0  0  0  0  0 
    4.4748   -0.6954   -2.8223 H   0  0  0  0  0  0  0  0  0  0  0  0 
    5.3259   -1.7760   -1.7526 H   0  0  0  0  0  0  0  0  0  0  0  0 
    6.5287   -1.5940   -3.9314 H   0  0  0  0  0  0  0  0  0  0  0  0 
    7.6886    0.8338   -2.4567 H   0  0  0  0  0  0  0  0  0  0  0  0 
    8.6080   -0.8765   -4.8872 H   0  0  0  0  0  0  0  0  0  0  0  0 
    9.9082    1.5691   -3.5276 H   0  0  0  0  0  0  0  0  0  0  0  0 
   10.6131   -0.3021   -5.9335 H   0  0  0  0  0  0  0  0  0  0  0  0 
  1 13  1  0  0  0  0 
  1 12  1  0  0  0  0 
  2 15  1  0  0  0  0 
  2  1  1  0  0  0  0 
  3 18  1  0  0  0  0 
  3  2  1  0  0  0  0 
  4 19  1  0  0  0  0 
  4  3  1  0  0  0  0 
  5 22  1  0  0  0  0 
  5  4  1  0  0  0  0 
  6  5  1  0  0  0  0 
  7  6  2  0  0  0  0 
  7 24  1  0  0  0  0 
  8  7  1  0  0  0  0 
  9  8  2  0  0  0  0 
  9 26  1  0  0  0  0 
 10  9  1  0  0  0  0 
 11 10  2  0  0  0  0 
 14  1  1  0  0  0  0 
 16  2  1  0  0  0  0 
 17  3  1  0  0  0  0 
 20  4  1  0  0  0  0 
 21  5  1  0  0  0  0 
 23  6  1  0  0  0  0 
 25  8  1  0  0  0  0 
 27 10  1  0  0  0  0 
M  END 
>  <HBA> 
1 
 
>  <HBD> 
0 
 
>  <TPSA> 
17.07 
 
>  <cid> 
16899 
 
>  <dipole> 
5.19 
 
>  <excitation_energy_1> 
3.45 
 
>  <excitation_energy_2> 
4.733 
 
>  <excitation_energy_3> 
6.015 
 
>  <excitation_energy_4> 
6.11 
 
>  <homo_energy> 
-6.504 
 
>  <homo_lumo_gap> 
4.637 
 
>  <logP> 
2.878 
 
>  <lumo_energy> 
-1.867 
 
>  <melting_point> 
22.09 
 
>  <molecular_refractivity> 
49.44 
 
>  <oscillator_strength_1> 
0.0001 
 
>  <oscillator_strength_2> 
0.961 
 
>  <oscillator_strength_3> 
0.0 
 
>  <oscillator_strength_4> 
0.0001 
 
>  <open_babel_can_smiles> 
CCCCC/C=C/C=C/C=O 
 
>  <mulliken_charges> 
27 
1   -0.442115 
2   -0.249246 
3   -0.24947 
4   -0.262429 
5   -0.308113 
6   -0.113683 
7   -0.102828 
8   -0.097755 
9   -0.172871 
10   0.22803 
11   -0.423765 
12   0.145024 
13   0.142587 
14   0.142679 
15   0.132887 
16   0.13279 
17   0.129839 
18   0.129718 
19   0.140317 
20   0.14028 
21   0.154989 
22   0.154525 
23   0.134223 
24   0.138859 
25   0.137395 
26   0.145639 
27   0.092493 
 
>  <lowdin_charges> 
27 
1   -0.444423 
2   -0.271813 
3   -0.273439 
4   -0.276209 
5   -0.273314 
6   -0.127001 
7   -0.174752 
8   -0.107257 
9   -0.204471 
10   0.035569 
11   -0.238071 
12   0.151651 
13   0.146659 
14   0.147099 
15   0.140339 
16   0.139535 
17   0.139058 
18   0.138165 
19   0.144019 
20   0.143348 
21   0.157226 
22   0.156261 
23   0.155222 
24   0.161338 
25   0.158131 
26   0.166966 
27   0.110166 
 
$$$$ 
 
