PCCDB-ID:  27440 
public computational chemistry database (PCCDB) project, http://pccdb.org 
 
 17 17  0  0  0  0  0  0  0  0999 V2000 
    0.9186   -0.1639    0.0374 C   0  0  0  0  0  0  0  0  0  0  0  0 
    3.6467    2.4781   -4.1097 C   0  0  0  0  0  0  0  0  0  0  0  0 
    2.4498   -0.0077    0.0132 C   0  0  0  0  0  0  0  0  0  0  0  0 
    3.8593   -0.0278   -3.6521 C   0  0  0  0  0  0  0  0  0  0  0  0 
    3.5206    1.2404   -3.2705 C   0  0  0  0  0  0  0  0  0  0  0  0 
    2.9889    0.1989   -1.3749 C   0  0  0  0  0  0  0  0  0  0  0  0 
    3.0292    1.3489   -1.9816 N   0  0  0  0  0  0  0  0  0  0  0  0 
    3.5625   -1.1483   -2.3607 S   0  0  0  0  0  0  0  0  0  0  0  0 
    0.5628   -0.2921    1.0657 H   0  0  0  0  0  0  0  0  0  0  0  0 
    0.6004   -1.0356   -0.5448 H   0  0  0  0  0  0  0  0  0  0  0  0 
    0.4374    0.7229   -0.3868 H   0  0  0  0  0  0  0  0  0  0  0  0 
    4.0098    2.2409   -5.1139 H   0  0  0  0  0  0  0  0  0  0  0  0 
    4.3421    3.1907   -3.6505 H   0  0  0  0  0  0  0  0  0  0  0  0 
    2.6791    2.9848   -4.2014 H   0  0  0  0  0  0  0  0  0  0  0  0 
    2.9218   -0.8855    0.4698 H   0  0  0  0  0  0  0  0  0  0  0  0 
    2.7393    0.8647    0.6093 H   0  0  0  0  0  0  0  0  0  0  0  0 
    4.2670   -0.3556   -4.5984 H   0  0  0  0  0  0  0  0  0  0  0  0 
  1  9  1  0  0  0  0 
  2 13  1  0  0  0  0 
  2  5  1  0  0  0  0 
  3  1  1  0  0  0  0 
  3 15  1  0  0  0  0 
  3 16  1  0  0  0  0 
  4  5  2  0  0  0  0 
  4  8  1  0  0  0  0 
  5  7  1  0  0  0  0 
  6  3  1  0  0  0  0 
  7  6  2  0  0  0  0 
  8  6  1  0  0  0  0 
 10  1  1  0  0  0  0 
 11  1  1  0  0  0  0 
 12  2  1  0  0  0  0 
 14  2  1  0  0  0  0 
 17  4  1  0  0  0  0 
M  END 
>  <HBA> 
2 
 
>  <HBD> 
0 
 
>  <TPSA> 
41.13 
 
>  <cid> 
27440 
 
>  <dipole> 
0.55 
 
>  <excitation_energy_1> 
5.209 
 
>  <excitation_energy_2> 
5.361 
 
>  <excitation_energy_3> 
5.388 
 
>  <excitation_energy_4> 
5.821 
 
>  <homo_energy> 
-6.231 
 
>  <homo_lumo_gap> 
5.818 
 
>  <logP> 
2.014 
 
>  <lumo_energy> 
-0.414 
 
>  <melting_point> 
26.06 
 
>  <molecular_refractivity> 
36.85 
 
>  <oscillator_strength_1> 
0.0904 
 
>  <oscillator_strength_2> 
0.0237 
 
>  <oscillator_strength_3> 
0.0012 
 
>  <oscillator_strength_4> 
0.0021 
 
>  <open_babel_can_smiles> 
CCc1scc(n1)C 
 
>  <mulliken_charges> 
17 
1   -0.439347 
2   -0.505214 
3   -0.309683 
4   -0.389137 
5   0.316145 
6   0.097524 
7   -0.435322 
8   0.211261 
9   0.148823 
10   0.153583 
11   0.166982 
12   0.150732 
13   0.169358 
14   0.169204 
15   0.152027 
16   0.17347 
17   0.169594 
 
>  <lowdin_charges> 
17 
1   -0.439092 
2   -0.437244 
3   -0.273824 
4   -0.354882 
5   0.0212 
6   -0.079602 
7   -0.174715 
8   0.271688 
9   0.152098 
10   0.153799 
11   0.160483 
12   0.156906 
13   0.167399 
14   0.166276 
15   0.156812 
16   0.1691 
17   0.183597 
 
$$$$ 
 
