PCCDB-ID:  29561 
public computational chemistry database (PCCDB) project, http://pccdb.org 
 
 45 46  0  0  1  0  0  0  0  0999 V2000 
    2.3274   -0.0978   -0.6832 C   0  0  0  0  0  0  0  0  0  0  0  0 
    0.4172   -0.8903    0.7293 C   0  0  0  0  0  0  0  0  0  0  0  0 
    2.2930   -2.4399    0.0234 C   0  0  0  0  0  0  0  0  0  0  0  0 
    0.6742   -1.7740    4.6494 C   0  0  0  0  0  0  0  0  0  0  0  0 
    1.6649   -3.4943    3.1552 C   0  0  0  0  0  0  0  0  0  0  0  0 
    2.9531   -2.7721    5.1305 C   0  0  0  0  0  0  0  0  0  0  0  0 
    4.6387    1.9135    3.5086 C   0  0  0  0  0  0  0  0  0  0  0  0 
    2.2162    2.4902    3.8046 C   0  0  0  0  0  0  0  0  0  0  0  0 
    2.8815    0.9847    1.8578 C   0  0  0  0  0  0  0  0  0  0  0  0 
    3.8902   -1.3048    2.3331 C   0  0  0  0  0  0  0  0  0  0  0  0 
    2.9568    0.1403    4.1369 C   0  0  0  0  0  0  0  0  0  0  0  0 
    1.9388   -1.0176    0.5090 C   0  0  0  0  0  0  0  0  0  0  0  0 
    1.9985   -2.2646    4.0179 C   0  0  0  0  0  0  0  0  0  0  0  0 
    3.1949    1.4086    3.3034 C   0  0  0  0  0  0  0  0  0  0  0  0 
    2.7197   -0.5497    1.7847 C   0  0  2  0  0  0  0  0  0  0  0  0 
    2.6997   -1.0827    3.2749 C   0  0  2  0  0  0  0  0  0  0  0  0 
    2.9613    0.1787    5.3553 O   0  0  0  0  0  0  0  0  0  0  0  0 
    1.8582   -0.4776   -1.5978 H   0  0  0  0  0  0  0  0  0  0  0  0 
    3.4114   -0.0917   -0.8468 H   0  0  0  0  0  0  0  0  0  0  0  0 
    1.9961    0.9361   -0.5560 H   0  0  0  0  0  0  0  0  0  0  0  0 
   -0.1242   -1.0835   -0.2048 H   0  0  0  0  0  0  0  0  0  0  0  0 
    0.1454    0.1179    1.0641 H   0  0  0  0  0  0  0  0  0  0  0  0 
    0.0515   -1.5963    1.4800 H   0  0  0  0  0  0  0  0  0  0  0  0 
    1.7096   -2.6654   -0.8768 H   0  0  0  0  0  0  0  0  0  0  0  0 
    2.0828   -3.2222    0.7480 H   0  0  0  0  0  0  0  0  0  0  0  0 
    3.3522   -2.5062   -0.2508 H   0  0  0  0  0  0  0  0  0  0  0  0 
    0.1875   -2.5979    5.1853 H   0  0  0  0  0  0  0  0  0  0  0  0 
   -0.0226   -1.4218    3.8791 H   0  0  0  0  0  0  0  0  0  0  0  0 
    0.8401   -0.9640    5.3623 H   0  0  0  0  0  0  0  0  0  0  0  0 
    1.2619   -4.2757    3.8096 H   0  0  0  0  0  0  0  0  0  0  0  0 
    2.5496   -3.9163    2.6674 H   0  0  0  0  0  0  0  0  0  0  0  0 
    0.9050   -3.2899    2.3975 H   0  0  0  0  0  0  0  0  0  0  0  0 
    2.4797   -3.5985    5.6748 H   0  0  0  0  0  0  0  0  0  0  0  0 
    3.1983   -1.9841    5.8411 H   0  0  0  0  0  0  0  0  0  0  0  0 
    3.8851   -3.1539    4.6951 H   0  0  0  0  0  0  0  0  0  0  0  0 
    4.7823    2.8665    2.9856 H   0  0  0  0  0  0  0  0  0  0  0  0 
    5.3857    1.2098    3.1258 H   0  0  0  0  0  0  0  0  0  0  0  0 
    4.8358    2.0703    4.5740 H   0  0  0  0  0  0  0  0  0  0  0  0 
    2.3524    3.4184    3.2369 H   0  0  0  0  0  0  0  0  0  0  0  0 
    2.3871    2.6960    4.8654 H   0  0  0  0  0  0  0  0  0  0  0  0 
    1.1741    2.1707    3.6863 H   0  0  0  0  0  0  0  0  0  0  0  0 
    3.6590    1.3203    1.1620 H   0  0  0  0  0  0  0  0  0  0  0  0 
    1.9481    1.4601    1.5382 H   0  0  0  0  0  0  0  0  0  0  0  0 
    4.8370   -0.8036    2.5241 H   0  0  0  0  0  0  0  0  0  0  0  0 
    4.0173   -2.3323    2.0047 H   0  0  0  0  0  0  0  0  0  0  0  0 
  1 20  1  0  0  0  0 
  1 12  1  0  0  0  0 
  2 22  1  0  0  0  0 
  2 23  1  0  0  0  0 
  3 12  1  0  0  0  0 
  3 25  1  0  0  0  0 
  4 27  1  0  0  0  0 
  4 29  1  0  0  0  0 
  5 30  1  0  0  0  0 
  5 13  1  0  0  0  0 
  6 33  1  0  0  0  0 
  6 34  1  0  0  0  0 
  7 38  1  0  0  0  0 
  8 40  1  0  0  0  0 
  9 14  1  0  0  0  0 
 10 44  1  0  0  0  0 
 10 16  1  0  0  0  0 
 11 17  2  0  0  0  0 
 12  2  1  0  0  0  0 
 13  4  1  0  0  0  0 
 13  6  1  0  0  0  0 
 14  7  1  0  0  0  0 
 14  8  1  0  0  0  0 
 14 11  1  0  0  0  0 
 15 12  1  6  0  0  0 
 15  9  1  0  0  0  0 
 15 10  1  0  0  0  0 
 15 16  1  0  0  0  0 
 16 13  1  1  0  0  0 
 16 11  1  0  0  0  0 
 18  1  1  0  0  0  0 
 19  1  1  0  0  0  0 
 21  2  1  0  0  0  0 
 24  3  1  0  0  0  0 
 26  3  1  0  0  0  0 
 28  4  1  0  0  0  0 
 31  5  1  0  0  0  0 
 32  5  1  0  0  0  0 
 35  6  1  0  0  0  0 
 36  7  1  0  0  0  0 
 37  7  1  0  0  0  0 
 39  8  1  0  0  0  0 
 41  8  1  0  0  0  0 
 42  9  1  0  0  0  0 
 43  9  1  0  0  0  0 
 45 10  1  0  0  0  0 
M  END 
>  <HBA> 
1 
 
>  <HBD> 
0 
 
>  <TPSA> 
17.07 
 
>  <cid> 
29561 
 
>  <dipole> 
2.81 
 
>  <excitation_energy_1> 
4.173 
 
>  <excitation_energy_2> 
5.786 
 
>  <excitation_energy_3> 
5.891 
 
>  <excitation_energy_4> 
6.138 
 
>  <homo_energy> 
-6.21 
 
>  <homo_lumo_gap> 
5.899 
 
>  <logP> 
4.454 
 
>  <lumo_energy> 
-0.31 
 
>  <melting_point> 
126.78 
 
>  <molecular_refractivity> 
73.7 
 
>  <oscillator_strength_1> 
0.0006 
 
>  <oscillator_strength_2> 
0.0031 
 
>  <oscillator_strength_3> 
0.046 
 
>  <oscillator_strength_4> 
0.0201 
 
>  <open_babel_can_smiles> 
O=C1C(C)(C)C[C@@]2([C@]1(C2)C(C)(C)C)C(C)(C)C 
 
>  <mulliken_charges> 
45 
1   -0.448598 
2   -0.457454 
3   -0.469516 
4   -0.468749 
5   -0.467378 
6   -0.45991 
7   -0.459381 
8   -0.455575 
9   -0.329194 
10   -0.355163 
11   0.445879 
12   0.074181 
13   0.077871 
14   0.02928 
15   0.073587 
16   0.010536 
17   -0.493576 
18   0.141136 
19   0.143764 
20   0.146249 
21   0.138666 
22   0.141347 
23   0.158798 
24   0.139412 
25   0.152119 
26   0.141509 
27   0.134459 
28   0.136641 
29   0.173294 
30   0.142981 
31   0.142157 
32   0.15192 
33   0.129754 
34   0.188839 
35   0.129722 
36   0.145013 
37   0.145612 
38   0.16726 
39   0.140753 
40   0.168341 
41   0.142962 
42   0.144629 
43   0.146365 
44   0.155355 
45   0.164104 
 
>  <lowdin_charges> 
45 
1   -0.439627 
2   -0.445514 
3   -0.453559 
4   -0.453183 
5   -0.448872 
6   -0.453092 
7   -0.43743 
8   -0.432251 
9   -0.276 
10   -0.303952 
11   0.161187 
12   0.022624 
13   0.02688 
14   -0.017156 
15   -0.002426 
16   -0.047587 
17   -0.247712 
18   0.149855 
19   0.146991 
20   0.148557 
21   0.14778 
22   0.14723 
23   0.152297 
24   0.149699 
25   0.158009 
26   0.147054 
27   0.147685 
28   0.144956 
29   0.164122 
30   0.152678 
31   0.146153 
32   0.149356 
33   0.144098 
34   0.171627 
35   0.142784 
36   0.15061 
37   0.148234 
38   0.160241 
39   0.148702 
40   0.16067 
41   0.147675 
42   0.150025 
43   0.149062 
44   0.155222 
45   0.1663 
 
$$$$ 
 
