PCCDB-ID:  25422 
public computational chemistry database (PCCDB) project, http://pccdb.org 
 
 18 18  0  0  0  0  0  0  0  0999 V2000 
    0.9606    0.1923    0.0177 C   0  0  0  0  0  0  0  0  0  0  0  0 
    2.7532   -2.5208    0.0206 C   0  0  0  0  0  0  0  0  0  0  0  0 
    5.8647   -1.4189    0.0431 C   0  0  0  0  0  0  0  0  0  0  0  0 
    3.3421    1.1333    0.0367 C   0  0  0  0  0  0  0  0  0  0  0  0 
    2.4575    0.0999    0.0275 C   0  0  0  0  0  0  0  0  0  0  0  0 
    3.2606   -1.1042    0.0284 C   0  0  0  0  0  0  0  0  0  0  0  0 
    4.5643   -0.6929    0.0382 C   0  0  0  0  0  0  0  0  0  0  0  0 
    4.6286    0.6755    0.0433 O   0  0  0  0  0  0  0  0  0  0  0  0 
    0.6317    1.2366    0.0181 H   0  0  0  0  0  0  0  0  0  0  0  0 
    0.5162   -0.2940    0.8956 H   0  0  0  0  0  0  0  0  0  0  0  0 
    0.5282   -0.2895   -0.8687 H   0  0  0  0  0  0  0  0  0  0  0  0 
    1.6590   -2.5443    0.0229 H   0  0  0  0  0  0  0  0  0  0  0  0 
    3.0902   -3.0851    0.8992 H   0  0  0  0  0  0  0  0  0  0  0  0 
    3.0862   -3.0743   -0.8664 H   0  0  0  0  0  0  0  0  0  0  0  0 
    5.6918   -2.4989    0.0382 H   0  0  0  0  0  0  0  0  0  0  0  0 
    6.4617   -1.1750    0.9312 H   0  0  0  0  0  0  0  0  0  0  0  0 
    6.4717   -1.1686   -0.8364 H   0  0  0  0  0  0  0  0  0  0  0  0 
    3.2240    2.2069    0.0390 H   0  0  0  0  0  0  0  0  0  0  0  0 
  1  9  1  0  0  0  0 
  1  5  1  0  0  0  0 
  1 10  1  0  0  0  0 
  2 12  1  0  0  0  0 
  2  6  1  0  0  0  0 
  2 13  1  0  0  0  0 
  3 16  1  0  0  0  0 
  4 18  1  0  0  0  0 
  4  8  1  0  0  0  0 
  5  6  1  0  0  0  0 
  5  4  2  0  0  0  0 
  6  7  2  0  0  0  0 
  7  3  1  0  0  0  0 
  7  8  1  0  0  0  0 
 11  1  1  0  0  0  0 
 14  2  1  0  0  0  0 
 15  3  1  0  0  0  0 
 17  3  1  0  0  0  0 
M  END 
>  <HBA> 
1 
 
>  <HBD> 
0 
 
>  <TPSA> 
13.14 
 
>  <cid> 
25422 
 
>  <dipole> 
0.95 
 
>  <excitation_energy_1> 
5.126 
 
>  <excitation_energy_2> 
5.496 
 
>  <excitation_energy_3> 
5.649 
 
>  <excitation_energy_4> 
5.653 
 
>  <homo_energy> 
-5.478 
 
>  <homo_lumo_gap> 
6.24 
 
>  <logP> 
2.205 
 
>  <lumo_energy> 
0.762 
 
>  <melting_point> 
16.06 
 
>  <molecular_refractivity> 
33.61 
 
>  <oscillator_strength_1> 
0.0031 
 
>  <oscillator_strength_2> 
0.0 
 
>  <oscillator_strength_3> 
0.006 
 
>  <oscillator_strength_4> 
0.1373 
 
>  <open_babel_can_smiles> 
Cc1c(C)coc1C 
 
>  <mulliken_charges> 
18 
1   -0.531114 
2   -0.535615 
3   -0.527945 
4   0.015084 
5   0.094629 
6   0.058422 
7   0.290349 
8   -0.443401 
9   0.154352 
10   0.157493 
11   0.157511 
12   0.155181 
13   0.158916 
14   0.158985 
15   0.160666 
16   0.167733 
17   0.167783 
18   0.14097 
 
>  <lowdin_charges> 
18 
1   -0.437507 
2   -0.440658 
3   -0.441543 
4   -0.10496 
5   -0.051691 
6   -0.070201 
7   0.053858 
8   -0.112177 
9   0.158279 
10   0.157699 
11   0.157668 
12   0.15755 
13   0.15869 
14   0.158615 
15   0.163912 
16   0.164967 
17   0.165052 
18   0.162448 
 
$$$$ 
 
