PCCDB-ID:  65163 
public computational chemistry database (PCCDB) project, http://pccdb.org 
 
 15 15  0  0  0  0  0  0  0  0999 V2000 
    1.0600   -0.3177    0.0608 C   0  0  0  0  0  0  0  0  0  0  0  0 
   -0.3560   -0.5920    2.2051 C   0  0  0  0  0  0  0  0  0  0  0  0 
    0.4918   -1.0133    1.2541 C   0  0  0  0  0  0  0  0  0  0  0  0 
    2.5932   -0.0894    0.1068 C   0  0  0  0  0  0  0  0  0  0  0  0 
   -0.6422   -1.7201    3.1226 C   0  0  0  0  0  0  0  0  0  0  0  0 
    0.7968   -2.4492    1.5558 C   0  0  0  0  0  0  0  0  0  0  0  0 
    3.0649    1.0174    0.0632 O   0  0  0  0  0  0  0  0  0  0  0  0 
    3.3577   -1.1907    0.1594 O   0  0  0  0  0  0  0  0  0  0  0  0 
   -1.3448   -1.7892    4.0854 O   0  0  0  0  0  0  0  0  0  0  0  0 
    1.5437   -3.1866    0.9540 O   0  0  0  0  0  0  0  0  0  0  0  0 
    0.0952   -2.8375    2.6594 O   0  0  0  0  0  0  0  0  0  0  0  0 
    0.6012    0.6637   -0.0622 H   0  0  0  0  0  0  0  0  0  0  0  0 
    0.8418   -0.9170   -0.8345 H   0  0  0  0  0  0  0  0  0  0  0  0 
   -0.8111    0.3815    2.3342 H   0  0  0  0  0  0  0  0  0  0  0  0 
    2.8164   -2.0084    0.2170 H   0  0  0  0  0  0  0  0  0  0  0  0 
  1  4  1  0  0  0  0 
  1  3  1  0  0  0  0 
  2 14  1  0  0  0  0 
  2  5  1  0  0  0  0 
  3  6  1  0  0  0  0 
  3  2  2  0  0  0  0 
  4  8  1  0  0  0  0 
  5  9  2  0  0  0  0 
  6 11  1  0  0  0  0 
  7  4  2  0  0  0  0 
  8 15  1  0  0  0  0 
 10  6  2  0  0  0  0 
 11  5  1  0  0  0  0 
 12  1  1  0  0  0  0 
 13  1  1  0  0  0  0 
M  END 
>  <HBA> 
5 
 
>  <HBD> 
1 
 
>  <TPSA> 
80.67 
 
>  <cid> 
65163 
 
>  <dipole> 
3.47 
 
>  <excitation_energy_1> 
3.539 
 
>  <excitation_energy_2> 
3.83 
 
>  <excitation_energy_3> 
4.401 
 
>  <excitation_energy_4> 
4.623 
 
>  <homo_energy> 
-7.747 
 
>  <homo_lumo_gap> 
4.09 
 
>  <logP> 
-0.529 
 
>  <lumo_energy> 
-3.657 
 
>  <melting_point> 
120.22 
 
>  <molecular_refractivity> 
31.62 
 
>  <oscillator_strength_1> 
0.045 
 
>  <oscillator_strength_2> 
0.017 
 
>  <oscillator_strength_3> 
0.0014 
 
>  <oscillator_strength_4> 
0.0003 
 
>  <open_babel_can_smiles> 
OC(=O)CC1=CC(=O)OC1=O 
 
>  <mulliken_charges> 
15 
1   -0.472021 
2   -0.220754 
3   0.10582 
4   0.596864 
5   0.615523 
6   0.628002 
7   -0.422546 
8   -0.570648 
9   -0.399777 
10   -0.459519 
11   -0.45701 
12   0.205175 
13   0.208396 
14   0.198876 
15   0.443619 
 
>  <lowdin_charges> 
15 
1   -0.311967 
2   -0.161318 
3   -0.008672 
4   0.195303 
5   0.214667 
6   0.212435 
7   -0.227604 
8   -0.348386 
9   -0.152707 
10   -0.210512 
11   -0.142841 
12   0.190523 
13   0.190569 
14   0.197354 
15   0.363157 
 
$$$$ 
 
