PCCDB-ID:  19709 
public computational chemistry database (PCCDB) project, http://pccdb.org 
 
 22 21  0  0  0  0  0  0  0  0999 V2000 
    0.8896    0.0635   -0.0370 C   0  0  0  0  0  0  0  0  0  0  0  0 
    2.9140    1.2043   -0.9771 C   0  0  0  0  0  0  0  0  0  0  0  0 
    2.8903    0.5014    1.4285 C   0  0  0  0  0  0  0  0  0  0  0  0 
    3.0532   -1.2296   -0.4328 C   0  0  0  0  0  0  0  0  0  0  0  0 
    2.7216   -2.4657    0.4099 C   0  0  0  0  0  0  0  0  0  0  0  0 
    2.4298    0.1205    0.0073 C   0  0  0  0  0  0  0  0  0  0  0  0 
    3.4597   -3.6275   -0.1079 N   0  0  0  0  0  0  0  0  0  0  0  0 
    0.4592    1.0454    0.1961 H   0  0  0  0  0  0  0  0  0  0  0  0 
    0.4846   -0.6524    0.6870 H   0  0  0  0  0  0  0  0  0  0  0  0 
    0.5320   -0.2277   -1.0328 H   0  0  0  0  0  0  0  0  0  0  0  0 
    2.5064    2.1879   -0.7128 H   0  0  0  0  0  0  0  0  0  0  0  0 
    2.5994    0.9769   -2.0033 H   0  0  0  0  0  0  0  0  0  0  0  0 
    4.0082    1.2825   -0.9729 H   0  0  0  0  0  0  0  0  0  0  0  0 
    2.5169    1.4959    1.7022 H   0  0  0  0  0  0  0  0  0  0  0  0 
    3.9850    0.5255    1.4962 H   0  0  0  0  0  0  0  0  0  0  0  0 
    2.5232   -0.2044    2.1821 H   0  0  0  0  0  0  0  0  0  0  0  0 
    2.7441   -1.4268   -1.4717 H   0  0  0  0  0  0  0  0  0  0  0  0 
    4.1466   -1.1307   -0.4548 H   0  0  0  0  0  0  0  0  0  0  0  0 
    1.6284   -2.6185    0.4427 H   0  0  0  0  0  0  0  0  0  0  0  0 
    3.0484   -2.3106    1.4450 H   0  0  0  0  0  0  0  0  0  0  0  0 
    3.1313   -3.8424   -1.0495 H   0  0  0  0  0  0  0  0  0  0  0  0 
    3.2436   -4.4493    0.4548 H   0  0  0  0  0  0  0  0  0  0  0  0 
  1  6  1  0  0  0  0 
  1  8  1  0  0  0  0 
  1  9  1  0  0  0  0 
  2 13  1  0  0  0  0 
  2 11  1  0  0  0  0 
  2  6  1  0  0  0  0 
  3 15  1  0  0  0  0 
  3 14  1  0  0  0  0 
  3 16  1  0  0  0  0 
  4  6  1  0  0  0  0 
  4  5  1  0  0  0  0 
  5 19  1  0  0  0  0 
  5 20  1  0  0  0  0 
  6  3  1  0  0  0  0 
  7  5  1  0  0  0  0 
  7 22  1  0  0  0  0 
 10  1  1  0  0  0  0 
 12  2  1  0  0  0  0 
 17  4  1  0  0  0  0 
 18  4  1  0  0  0  0 
 21  7  1  0  0  0  0 
M  END 
>  <HBA> 
1 
 
>  <HBD> 
1 
 
>  <TPSA> 
26.02 
 
>  <cid> 
19709 
 
>  <dipole> 
1.34 
 
>  <excitation_energy_1> 
5.553 
 
>  <excitation_energy_2> 
6.275 
 
>  <excitation_energy_3> 
6.364 
 
>  <excitation_energy_4> 
6.667 
 
>  <homo_energy> 
-6.204 
 
>  <homo_lumo_gap> 
8.313 
 
>  <logP> 
2.082 
 
>  <lumo_energy> 
2.109 
 
>  <melting_point> 
46.37 
 
>  <molecular_refractivity> 
33.4 
 
>  <oscillator_strength_1> 
0.0112 
 
>  <oscillator_strength_2> 
0.0127 
 
>  <oscillator_strength_3> 
0.0086 
 
>  <oscillator_strength_4> 
0.0251 
 
>  <open_babel_can_smiles> 
NCCC(C)(C)C 
 
>  <mulliken_charges> 
22 
1   -0.444983 
2   -0.440197 
3   -0.44548 
4   -0.24341 
5   -0.144983 
6   0.099203 
7   -0.717391 
8   0.137158 
9   0.140422 
10   0.135249 
11   0.135706 
12   0.136311 
13   0.139242 
14   0.136778 
15   0.14044 
16   0.14016 
17   0.114988 
18   0.142848 
19   0.114317 
20   0.140803 
21   0.289551 
22   0.293267 
 
>  <lowdin_charges> 
22 
1   -0.44614 
2   -0.437483 
3   -0.443034 
4   -0.2761 
5   -0.204775 
6   0.015647 
7   -0.559142 
8   0.146618 
9   0.147015 
10   0.14492 
11   0.145014 
12   0.144615 
13   0.145164 
14   0.146424 
15   0.146066 
16   0.147195 
17   0.132991 
18   0.146517 
19   0.115445 
20   0.14062 
21   0.248995 
22   0.25343 
 
$$$$ 
 
