PCCDB-ID:  15607 
public computational chemistry database (PCCDB) project, http://pccdb.org 
 
 38 37  0  0  0  0  0  0  0  0999 V2000 
    3.5829    1.8087   -2.2156 C   0  0  0  0  0  0  0  0  0  0  0  0 
   15.9165   -4.1957   -0.2326 C   0  0  0  0  0  0  0  0  0  0  0  0 
    3.5896    0.3959   -1.6228 C   0  0  0  0  0  0  0  0  0  0  0  0 
    4.8743   -0.3848   -1.9304 C   0  0  0  0  0  0  0  0  0  0  0  0 
    4.8775   -1.8019   -1.3395 C   0  0  0  0  0  0  0  0  0  0  0  0 
    6.1222   -2.6405   -1.6754 C   0  0  0  0  0  0  0  0  0  0  0  0 
    7.4287   -2.1348   -1.0469 C   0  0  0  0  0  0  0  0  0  0  0  0 
    8.6297   -3.0446   -1.3375 C   0  0  0  0  0  0  0  0  0  0  0  0 
    9.9352   -2.5609   -0.6930 C   0  0  0  0  0  0  0  0  0  0  0  0 
   11.1282   -3.4797   -0.9824 C   0  0  0  0  0  0  0  0  0  0  0  0 
   12.4212   -2.9953   -0.3230 C   0  0  0  0  0  0  0  0  0  0  0  0 
   13.5995   -3.9164   -0.5735 C   0  0  0  0  0  0  0  0  0  0  0  0 
   13.5575   -4.9835   -1.1466 O   0  0  0  0  0  0  0  0  0  0  0  0 
   14.7377   -3.3937   -0.0576 O   0  0  0  0  0  0  0  0  0  0  0  0 
    2.6540    2.3395   -1.9771 H   0  0  0  0  0  0  0  0  0  0  0  0 
    3.6789    1.7803   -3.3081 H   0  0  0  0  0  0  0  0  0  0  0  0 
    4.4168    2.4063   -1.8268 H   0  0  0  0  0  0  0  0  0  0  0  0 
   16.7260   -3.6319    0.2323 H   0  0  0  0  0  0  0  0  0  0  0  0 
   16.1205   -4.3544   -1.2950 H   0  0  0  0  0  0  0  0  0  0  0  0 
   15.7978   -5.1678    0.2538 H   0  0  0  0  0  0  0  0  0  0  0  0 
    2.7252   -0.1656   -2.0052 H   0  0  0  0  0  0  0  0  0  0  0  0 
    3.4545    0.4548   -0.5333 H   0  0  0  0  0  0  0  0  0  0  0  0 
    5.7355    0.1833   -1.5520 H   0  0  0  0  0  0  0  0  0  0  0  0 
    5.0068   -0.4472   -3.0213 H   0  0  0  0  0  0  0  0  0  0  0  0 
    3.9869   -2.3346   -1.7025 H   0  0  0  0  0  0  0  0  0  0  0  0 
    4.7679   -1.7392   -0.2464 H   0  0  0  0  0  0  0  0  0  0  0  0 
    6.2407   -2.6912   -2.7682 H   0  0  0  0  0  0  0  0  0  0  0  0 
    5.9504   -3.6738   -1.3416 H   0  0  0  0  0  0  0  0  0  0  0  0 
    7.2950   -2.0485    0.0422 H   0  0  0  0  0  0  0  0  0  0  0  0 
    7.6517   -1.1210   -1.4070 H   0  0  0  0  0  0  0  0  0  0  0  0 
    8.7706   -3.1251   -2.4255 H   0  0  0  0  0  0  0  0  0  0  0  0 
    8.4078   -4.0627   -0.9853 H   0  0  0  0  0  0  0  0  0  0  0  0 
    9.7931   -2.4777    0.3951 H   0  0  0  0  0  0  0  0  0  0  0  0 
   10.1602   -1.5436   -1.0469 H   0  0  0  0  0  0  0  0  0  0  0  0 
   11.2844   -3.5595   -2.0658 H   0  0  0  0  0  0  0  0  0  0  0  0 
   10.9103   -4.4977   -0.6371 H   0  0  0  0  0  0  0  0  0  0  0  0 
   12.2974   -2.9054    0.7654 H   0  0  0  0  0  0  0  0  0  0  0  0 
   12.6960   -1.9901   -0.6686 H   0  0  0  0  0  0  0  0  0  0  0  0 
  1 15  1  0  0  0  0 
  1 17  1  0  0  0  0 
  1  3  1  0  0  0  0 
  2 14  1  0  0  0  0 
  2 18  1  0  0  0  0 
  2 20  1  0  0  0  0 
  3 22  1  0  0  0  0 
  4  3  1  0  0  0  0 
  4 23  1  0  0  0  0 
  4  5  1  0  0  0  0 
  5 26  1  0  0  0  0 
  6 28  1  0  0  0  0 
  6  5  1  0  0  0  0 
  6  7  1  0  0  0  0 
  7 29  1  0  0  0  0 
  8  7  1  0  0  0  0 
  8 32  1  0  0  0  0 
  8  9  1  0  0  0  0 
  9 33  1  0  0  0  0 
 10  9  1  0  0  0  0 
 10 36  1  0  0  0  0 
 10 11  1  0  0  0  0 
 11 37  1  0  0  0  0 
 12 11  1  0  0  0  0 
 12 14  1  0  0  0  0 
 13 12  2  0  0  0  0 
 16  1  1  0  0  0  0 
 19  2  1  0  0  0  0 
 21  3  1  0  0  0  0 
 24  4  1  0  0  0  0 
 25  5  1  0  0  0  0 
 27  6  1  0  0  0  0 
 30  7  1  0  0  0  0 
 31  8  1  0  0  0  0 
 34  9  1  0  0  0  0 
 35 10  1  0  0  0  0 
 38 11  1  0  0  0  0 
M  END 
>  <HBA> 
2 
 
>  <HBD> 
0 
 
>  <TPSA> 
26.3 
 
>  <cid> 
15607 
 
>  <dipole> 
1.53 
 
>  <excitation_energy_1> 
5.848 
 
>  <excitation_energy_2> 
6.996 
 
>  <excitation_energy_3> 
7.486 
 
>  <excitation_energy_4> 
7.625 
 
>  <homo_energy> 
-7.29 
 
>  <homo_lumo_gap> 
7.75 
 
>  <logP> 
3.69 
 
>  <lumo_energy> 
0.46 
 
>  <melting_point> 
-18.11 
 
>  <molecular_refractivity> 
61.08 
 
>  <oscillator_strength_1> 
0.0006 
 
>  <oscillator_strength_2> 
0.0191 
 
>  <oscillator_strength_3> 
0.0062 
 
>  <oscillator_strength_4> 
0.0037 
 
>  <open_babel_can_smiles> 
CCCCCCCCCCC(=O)OC 
 
>  <mulliken_charges> 
38 
1   -0.441687 
2   -0.216957 
3   -0.246372 
4   -0.247184 
5   -0.254469 
6   -0.254632 
7   -0.254152 
8   -0.253467 
9   -0.257384 
10   -0.248588 
11   -0.362408 
12   0.62062 
13   -0.478607 
14   -0.454802 
15   0.141181 
16   0.140989 
17   0.140464 
18   0.162652 
19   0.168985 
20   0.168592 
21   0.12969 
22   0.129744 
23   0.131035 
24   0.125203 
25   0.126715 
26   0.125497 
27   0.126563 
28   0.127169 
29   0.125279 
30   0.132021 
31   0.129875 
32   0.12974 
33   0.12662 
34   0.126778 
35   0.145878 
36   0.150565 
37   0.17018 
38   0.168672 
 
>  <lowdin_charges> 
38 
1   -0.443701 
2   -0.277975 
3   -0.270425 
4   -0.27574 
5   -0.273707 
6   -0.271705 
7   -0.273658 
8   -0.270472 
9   -0.271808 
10   -0.267561 
11   -0.297981 
12   0.194518 
13   -0.263664 
14   -0.198079 
15   0.149107 
16   0.144007 
17   0.146542 
18   0.160571 
19   0.156983 
20   0.157776 
21   0.139029 
22   0.136495 
23   0.138913 
24   0.134508 
25   0.140607 
26   0.134848 
27   0.135447 
28   0.139092 
29   0.134548 
30   0.137947 
31   0.137175 
32   0.137948 
33   0.135105 
34   0.13623 
35   0.147081 
36   0.150479 
37   0.165665 
38   0.165856 
 
$$$$ 
 
