PCCDB-ID:  34750 
public computational chemistry database (PCCDB) project, http://pccdb.org 
 
 34 33  0  0  0  0  0  0  0  0999 V2000 
    3.6039    1.2492   -0.6840 C   0  0  0  0  0  0  0  0  0  0  0  0 
   -4.6979   -6.3325   -5.0438 C   0  0  0  0  0  0  0  0  0  0  0  0 
    0.1669   -3.2251   -1.7510 C   0  0  0  0  0  0  0  0  0  0  0  0 
   -1.3588   -3.0692   -1.7083 C   0  0  0  0  0  0  0  0  0  0  0  0 
    0.9120   -2.0590   -1.0900 C   0  0  0  0  0  0  0  0  0  0  0  0 
   -2.1030   -4.2323   -2.3756 C   0  0  0  0  0  0  0  0  0  0  0  0 
    2.4426   -2.2247   -1.1421 C   0  0  0  0  0  0  0  0  0  0  0  0 
   -3.6332   -4.0618   -2.3341 C   0  0  0  0  0  0  0  0  0  0  0  0 
    3.1842   -1.0727   -0.4974 C   0  0  0  0  0  0  0  0  0  0  0  0 
   -4.3778   -5.2082   -2.9857 C   0  0  0  0  0  0  0  0  0  0  0  0 
    3.9055   -1.0718    0.5534 N   0  0  0  0  0  0  0  0  0  0  0  0 
   -5.1828   -6.0431   -2.4575 N   0  0  0  0  0  0  0  0  0  0  0  0 
    2.9786    0.0686   -1.1978 O   0  0  0  0  0  0  0  0  0  0  0  0 
   -4.0741   -5.2778   -4.3041 O   0  0  0  0  0  0  0  0  0  0  0  0 
    3.3226    2.0507   -1.3695 H   0  0  0  0  0  0  0  0  0  0  0  0 
    4.6909    1.1301   -0.6543 H   0  0  0  0  0  0  0  0  0  0  0  0 
    3.2515    1.4648    0.3289 H   0  0  0  0  0  0  0  0  0  0  0  0 
   -4.3306   -6.2291   -6.0664 H   0  0  0  0  0  0  0  0  0  0  0  0 
   -5.7871   -6.2355   -5.0128 H   0  0  0  0  0  0  0  0  0  0  0  0 
   -4.4255   -7.3086   -4.6317 H   0  0  0  0  0  0  0  0  0  0  0  0 
    0.4934   -3.3201   -2.7969 H   0  0  0  0  0  0  0  0  0  0  0  0 
    0.4494   -4.1666   -1.2569 H   0  0  0  0  0  0  0  0  0  0  0  0 
   -1.6417   -2.1262   -2.1986 H   0  0  0  0  0  0  0  0  0  0  0  0 
   -1.6853   -2.9783   -0.6617 H   0  0  0  0  0  0  0  0  0  0  0  0 
    0.5961   -1.9673   -0.0414 H   0  0  0  0  0  0  0  0  0  0  0  0 
    0.6408   -1.1169   -1.5810 H   0  0  0  0  0  0  0  0  0  0  0  0 
   -1.8321   -5.1751   -1.8802 H   0  0  0  0  0  0  0  0  0  0  0  0 
   -1.7860   -4.3273   -3.4208 H   0  0  0  0  0  0  0  0  0  0  0  0 
    2.7623   -2.2983   -2.1899 H   0  0  0  0  0  0  0  0  0  0  0  0 
    2.7388   -3.1560   -0.6455 H   0  0  0  0  0  0  0  0  0  0  0  0 
   -3.9063   -3.1334   -2.8532 H   0  0  0  0  0  0  0  0  0  0  0  0 
   -3.9749   -3.9660   -1.2969 H   0  0  0  0  0  0  0  0  0  0  0  0 
    3.9499   -2.0112    0.9498 H   0  0  0  0  0  0  0  0  0  0  0  0 
   -5.2930   -5.8434   -1.4627 H   0  0  0  0  0  0  0  0  0  0  0  0 
  1 16  1  0  0  0  0 
  1 17  1  0  0  0  0 
  2 19  1  0  0  0  0 
  2 20  1  0  0  0  0 
  2 14  1  0  0  0  0 
  3  4  1  0  0  0  0 
  3 22  1  0  0  0  0 
  3  5  1  0  0  0  0 
  4 24  1  0  0  0  0 
  5 25  1  0  0  0  0 
  6  8  1  0  0  0  0 
  6 27  1  0  0  0  0 
  6  4  1  0  0  0  0 
  7  5  1  0  0  0  0 
  7 30  1  0  0  0  0 
  7  9  1  0  0  0  0 
  8 32  1  0  0  0  0 
  9 11  2  0  0  0  0 
 10 12  2  0  0  0  0 
 10  8  1  0  0  0  0 
 11 33  1  0  0  0  0 
 12 34  1  0  0  0  0 
 13  1  1  0  0  0  0 
 13  9  1  0  0  0  0 
 14 10  1  0  0  0  0 
 15  1  1  0  0  0  0 
 18  2  1  0  0  0  0 
 21  3  1  0  0  0  0 
 23  4  1  0  0  0  0 
 26  5  1  0  0  0  0 
 28  6  1  0  0  0  0 
 29  7  1  0  0  0  0 
 31  8  1  0  0  0  0 
M  END 
>  <HBA> 
4 
 
>  <HBD> 
2 
 
>  <TPSA> 
66.16 
 
>  <cid> 
34750 
 
>  <dipole> 
0.37 
 
>  <excitation_energy_1> 
6.363 
 
>  <excitation_energy_2> 
6.373 
 
>  <excitation_energy_3> 
6.676 
 
>  <excitation_energy_4> 
6.679 
 
>  <homo_energy> 
-7.015 
 
>  <homo_lumo_gap> 
7.829 
 
>  <logP> 
2.774 
 
>  <lumo_energy> 
0.814 
 
>  <melting_point> 
15.48 
 
>  <molecular_refractivity> 
59.54 
 
>  <oscillator_strength_1> 
0.0006 
 
>  <oscillator_strength_2> 
0.001 
 
>  <oscillator_strength_3> 
0.0023 
 
>  <oscillator_strength_4> 
0.0421 
 
>  <open_babel_can_smiles> 
COC(=N)CCCCCCC(=N)OC 
 
>  <mulliken_charges> 
34 
1   -0.200635 
2   -0.200509 
3   -0.255258 
4   -0.255508 
5   -0.261192 
6   -0.261156 
7   -0.323774 
8   -0.324573 
9   0.506688 
10   0.508129 
11   -0.633632 
12   -0.634281 
13   -0.459135 
14   -0.45933 
15   0.153453 
16   0.166088 
17   0.165184 
18   0.153435 
19   0.165938 
20   0.165369 
21   0.133822 
22   0.129978 
23   0.133584 
24   0.129915 
25   0.137616 
26   0.156697 
27   0.13763 
28   0.157195 
29   0.160459 
30   0.138749 
31   0.160763 
32   0.138612 
33   0.284824 
34   0.284855 
 
>  <lowdin_charges> 
34 
1   -0.274126 
2   -0.273113 
3   -0.27284 
4   -0.272881 
5   -0.270086 
6   -0.270361 
7   -0.2909 
8   -0.291371 
9   0.13007 
10   0.132201 
11   -0.427996 
12   -0.427477 
13   -0.199811 
14   -0.200532 
15   0.154876 
16   0.154869 
17   0.155859 
18   0.152829 
19   0.15479 
20   0.1563 
21   0.139636 
22   0.13874 
23   0.140778 
24   0.137397 
25   0.14186 
26   0.152419 
27   0.143212 
28   0.151441 
29   0.160639 
30   0.149618 
31   0.162109 
32   0.148298 
33   0.257096 
34   0.256453 
 
$$$$ 
 
