PCCDB-ID:  21103 
public computational chemistry database (PCCDB) project, http://pccdb.org 
 
 20 21  0  0  0  0  0  0  0  0999 V2000 
    1.0680   -0.1921    0.0526 C   0  0  0  0  0  0  0  0  0  0  0  0 
    3.3245    3.5824   -0.0710 C   0  0  0  0  0  0  0  0  0  0  0  0 
    4.7352    3.5487   -0.0771 C   0  0  0  0  0  0  0  0  0  0  0  0 
    2.5986    2.4092   -0.0341 C   0  0  0  0  0  0  0  0  0  0  0  0 
    5.4014    2.3402   -0.0481 C   0  0  0  0  0  0  0  0  0  0  0  0 
    2.5724   -0.1052    0.0392 C   0  0  0  0  0  0  0  0  0  0  0  0 
    3.2579    1.1564   -0.0030 C   0  0  0  0  0  0  0  0  0  0  0  0 
    4.6775    1.1252   -0.0117 C   0  0  0  0  0  0  0  0  0  0  0  0 
    5.2659   -0.1863    0.0200 C   0  0  0  0  0  0  0  0  0  0  0  0 
    3.2164   -1.2531    0.0692 N   0  0  0  0  0  0  0  0  0  0  0  0 
    4.5751   -1.2969    0.0591 N   0  0  0  0  0  0  0  0  0  0  0  0 
    6.6111   -0.3694    0.0124 O   0  0  0  0  0  0  0  0  0  0  0  0 
    0.6395    0.3169    0.9252 H   0  0  0  0  0  0  0  0  0  0  0  0 
    0.7795   -1.2444    0.0855 H   0  0  0  0  0  0  0  0  0  0  0  0 
    0.6268    0.2644   -0.8425 H   0  0  0  0  0  0  0  0  0  0  0  0 
    2.8103    4.5390   -0.0946 H   0  0  0  0  0  0  0  0  0  0  0  0 
    5.2978    4.4773   -0.1048 H   0  0  0  0  0  0  0  0  0  0  0  0 
    1.5142    2.4412   -0.0287 H   0  0  0  0  0  0  0  0  0  0  0  0 
    6.4894    2.3459   -0.0512 H   0  0  0  0  0  0  0  0  0  0  0  0 
    7.0618    0.4863   -0.0295 H   0  0  0  0  0  0  0  0  0  0  0  0 
  1 14  1  0  0  0  0 
  1 13  1  0  0  0  0 
  2  4  1  0  0  0  0 
  3  2  2  0  0  0  0 
  3  5  1  0  0  0  0 
  4 18  1  0  0  0  0 
  4  7  2  0  0  0  0 
  5  8  2  0  0  0  0 
  6  1  1  0  0  0  0 
  6 10  2  0  0  0  0 
  7  6  1  0  0  0  0 
  8  7  1  0  0  0  0 
  8  9  1  0  0  0  0 
  9 11  2  0  0  0  0 
 11 10  1  0  0  0  0 
 12  9  1  0  0  0  0 
 15  1  1  0  0  0  0 
 16  2  1  0  0  0  0 
 17  3  1  0  0  0  0 
 19  5  1  0  0  0  0 
 20 12  1  0  0  0  0 
M  END 
>  <HBA> 
2 
 
>  <HBD> 
1 
 
>  <TPSA> 
45.75 
 
>  <cid> 
21103 
 
>  <dipole> 
6.31 
 
>  <excitation_energy_1> 
3.491 
 
>  <excitation_energy_2> 
3.825 
 
>  <excitation_energy_3> 
4.199 
 
>  <excitation_energy_4> 
4.433 
 
>  <homo_energy> 
-6.133 
 
>  <homo_lumo_gap> 
4.509 
 
>  <logP> 
1.232 
 
>  <lumo_energy> 
-1.625 
 
>  <melting_point> 
150.71 
 
>  <molecular_refractivity> 
47.33 
 
>  <oscillator_strength_1> 
0.0 
 
>  <oscillator_strength_2> 
0.0024 
 
>  <oscillator_strength_3> 
0.0842 
 
>  <oscillator_strength_4> 
0.0476 
 
>  <open_babel_can_smiles> 
Oc1nnc(c2c1cccc2)C 
 
>  <mulliken_charges> 
20 
1   -0.524462 
2   -0.125315 
3   -0.126456 
4   -0.194683 
5   -0.209744 
6   0.275451 
7   0.098123 
8   0.12796 
9   0.429656 
10   -0.329599 
11   -0.321411 
12   -0.59474 
13   0.160144 
14   0.189474 
15   0.160087 
16   0.145823 
17   0.14562 
18   0.148426 
19   0.127818 
20   0.417827 
 
>  <lowdin_charges> 
20 
1   -0.447911 
2   -0.14252 
3   -0.143796 
4   -0.143606 
5   -0.156378 
6   0.02444 
7   -0.007956 
8   -0.037557 
9   0.118885 
10   -0.100269 
11   -0.12271 
12   -0.348612 
13   0.160962 
14   0.177883 
15   0.160776 
16   0.166315 
17   0.166621 
18   0.167259 
19   0.151979 
20   0.356194 
 
$$$$ 
 
