PCCDB-ID:  23110 
public computational chemistry database (PCCDB) project, http://pccdb.org 
 
 16 15  0  0  0  0  0  0  0  0999 V2000 
    3.8657    1.6790    1.9043 C   0  0  0  0  0  0  0  0  0  0  0  0 
    4.7792   -4.0282    0.0785 C   0  0  0  0  0  0  0  0  0  0  0  0 
    3.5994   -0.9467    0.8921 C   0  0  0  0  0  0  0  0  0  0  0  0 
    5.0455   -1.4026    1.0907 C   0  0  0  0  0  0  0  0  0  0  0  0 
    3.4396    0.8050    0.3556 S   0  0  0  0  0  0  0  0  0  0  0  0 
    5.2053   -3.1543    1.6272 S   0  0  0  0  0  0  0  0  0  0  0  0 
    3.7372    2.7463    1.7059 H   0  0  0  0  0  0  0  0  0  0  0  0 
    4.9028    1.5051    2.2046 H   0  0  0  0  0  0  0  0  0  0  0  0 
    3.1919    1.3893    2.7166 H   0  0  0  0  0  0  0  0  0  0  0  0 
    4.9079   -5.0955    0.2768 H   0  0  0  0  0  0  0  0  0  0  0  0 
    5.4529   -3.7384   -0.7339 H   0  0  0  0  0  0  0  0  0  0  0  0 
    3.7421   -3.8544   -0.2218 H   0  0  0  0  0  0  0  0  0  0  0  0 
    3.0153   -1.1019    1.8053 H   0  0  0  0  0  0  0  0  0  0  0  0 
    3.1185   -1.5227    0.0955 H   0  0  0  0  0  0  0  0  0  0  0  0 
    5.5265   -0.8265    1.8874 H   0  0  0  0  0  0  0  0  0  0  0  0 
    5.6297   -1.2474    0.1776 H   0  0  0  0  0  0  0  0  0  0  0  0 
  1  8  1  0  0  0  0 
  1  9  1  0  0  0  0 
  2 10  1  0  0  0  0 
  2  6  1  0  0  0  0 
  3  4  1  0  0  0  0 
  3 13  1  0  0  0  0 
  4  6  1  0  0  0  0 
  4 15  1  0  0  0  0 
  5  3  1  0  0  0  0 
  5  1  1  0  0  0  0 
  7  1  1  0  0  0  0 
 11  2  1  0  0  0  0 
 12  2  1  0  0  0  0 
 14  3  1  0  0  0  0 
 16  4  1  0  0  0  0 
M  END 
>  <HBA> 
2 
 
>  <HBD> 
0 
 
>  <TPSA> 
50.6 
 
>  <cid> 
23110 
 
>  <dipole> 
0.0 
 
>  <excitation_energy_1> 
5.095 
 
>  <excitation_energy_2> 
5.211 
 
>  <excitation_energy_3> 
5.439 
 
>  <excitation_energy_4> 
5.643 
 
>  <homo_energy> 
-5.973 
 
>  <homo_lumo_gap> 
6.83 
 
>  <logP> 
1.712 
 
>  <lumo_energy> 
0.857 
 
>  <melting_point> 
-7.29 
 
>  <molecular_refractivity> 
36.52 
 
>  <oscillator_strength_1> 
0.005 
 
>  <oscillator_strength_2> 
0.0 
 
>  <oscillator_strength_3> 
0.0 
 
>  <oscillator_strength_4> 
0.0365 
 
>  <open_babel_can_smiles> 
CSCCSC 
 
>  <mulliken_charges> 
16 
1   -0.584767 
2   -0.584776 
3   -0.406336 
4   -0.406368 
5   0.086305 
6   0.08631 
7   0.186778 
8   0.178466 
9   0.178673 
10   0.186779 
11   0.178673 
12   0.178469 
13   0.182439 
14   0.178456 
15   0.178457 
16   0.182442 
 
>  <lowdin_charges> 
16 
1   -0.546017 
2   -0.546019 
3   -0.384433 
4   -0.384437 
5   0.096843 
6   0.096844 
7   0.176612 
8   0.159483 
9   0.163617 
10   0.176612 
11   0.163617 
12   0.159482 
13   0.164543 
14   0.169355 
15   0.169354 
16   0.164543 
 
$$$$ 
 
