PCCDB-ID:  12357 
public computational chemistry database (PCCDB) project, http://pccdb.org 
 
 16 15  0  0  0  0  0  0  0  0999 V2000 
    1.1097    0.6213    0.1501 C   0  0  0  0  0  0  0  0  0  0  0  0 
    2.6198    0.3832    0.0489 C   0  0  0  0  0  0  0  0  0  0  0  0 
    2.9797   -0.6926   -0.9878 C   0  0  0  0  0  0  0  0  0  0  0  0 
    4.4906   -0.9122   -1.0729 C   0  0  0  0  0  0  0  0  0  0  0  0 
    6.5378   -2.2605   -2.2691 C   0  0  0  0  0  0  0  0  0  0  0  0 
    7.7034   -2.3012   -2.2457 N   0  0  0  0  0  0  0  0  0  0  0  0 
    4.8387   -2.2340   -2.3351 S   0  0  0  0  0  0  0  0  0  0  0  0 
    0.8818    1.3920    0.8942 H   0  0  0  0  0  0  0  0  0  0  0  0 
    0.5825   -0.2938    0.4448 H   0  0  0  0  0  0  0  0  0  0  0  0 
    0.6945    0.9506   -0.8099 H   0  0  0  0  0  0  0  0  0  0  0  0 
    3.0126    0.0864    1.0310 H   0  0  0  0  0  0  0  0  0  0  0  0 
    3.1240    1.3231   -0.2138 H   0  0  0  0  0  0  0  0  0  0  0  0 
    2.5935   -0.3965   -1.9722 H   0  0  0  0  0  0  0  0  0  0  0  0 
    2.4834   -1.6360   -0.7235 H   0  0  0  0  0  0  0  0  0  0  0  0 
    4.9012   -1.2447   -0.1160 H   0  0  0  0  0  0  0  0  0  0  0  0 
    5.0103   -0.0033   -1.3869 H   0  0  0  0  0  0  0  0  0  0  0  0 
  1  9  1  0  0  0  0 
  1  8  1  0  0  0  0 
  2  1  1  0  0  0  0 
  2 11  1  0  0  0  0 
  3 14  1  0  0  0  0 
  3  2  1  0  0  0  0 
  4  3  1  0  0  0  0 
  4 15  1  0  0  0  0 
  5  6  3  0  0  0  0 
  7  5  1  0  0  0  0 
  7  4  1  0  0  0  0 
 10  1  1  0  0  0  0 
 12  2  1  0  0  0  0 
 13  3  1  0  0  0  0 
 16  4  1  0  0  0  0 
M  END 
>  <HBA> 
2 
 
>  <HBD> 
0 
 
>  <TPSA> 
49.09 
 
>  <cid> 
12357 
 
>  <dipole> 
4.79 
 
>  <excitation_energy_1> 
4.943 
 
>  <excitation_energy_2> 
6.213 
 
>  <excitation_energy_3> 
6.718 
 
>  <excitation_energy_4> 
6.746 
 
>  <homo_energy> 
-7.108 
 
>  <homo_lumo_gap> 
6.455 
 
>  <logP> 
2.001 
 
>  <lumo_energy> 
-0.653 
 
>  <melting_point> 
16.97 
 
>  <molecular_refractivity> 
33.49 
 
>  <oscillator_strength_1> 
0.0001 
 
>  <oscillator_strength_2> 
0.0016 
 
>  <oscillator_strength_3> 
0.0014 
 
>  <oscillator_strength_4> 
0.0197 
 
>  <open_babel_can_smiles> 
CCCCSC#N 
 
>  <mulliken_charges> 
16 
1   -0.443577 
2   -0.253946 
3   -0.27509 
4   -0.425312 
5   0.115491 
6   -0.384403 
7   0.217311 
8   0.152647 
9   0.148783 
10   0.148819 
11   0.14265 
12   0.142707 
13   0.158728 
14   0.158244 
15   0.198283 
16   0.198664 
 
>  <lowdin_charges> 
16 
1   -0.443986 
2   -0.26987 
3   -0.279801 
4   -0.354878 
5   -0.171904 
6   -0.121486 
7   0.243353 
8   0.156296 
9   0.150784 
10   0.150427 
11   0.144712 
12   0.145167 
13   0.153241 
14   0.153411 
15   0.171842 
16   0.172691 
 
$$$$ 
 
