PCCDB-ID:  13071 
public computational chemistry database (PCCDB) project, http://pccdb.org 
 
 34 35  0  0  0  0  0  0  0  0999 V2000 
    3.3073   -0.7380    2.7227 C   0  0  0  0  0  0  0  0  0  0  0  0 
   10.2629   -5.1370   -2.0452 C   0  0  0  0  0  0  0  0  0  0  0  0 
    9.5580   -6.3528   -1.4231 C   0  0  0  0  0  0  0  0  0  0  0  0 
    9.4281   -3.8580   -1.8739 C   0  0  0  0  0  0  0  0  0  0  0  0 
    8.1293   -6.5181   -1.9706 C   0  0  0  0  0  0  0  0  0  0  0  0 
    8.0100   -4.0293   -2.4397 C   0  0  0  0  0  0  0  0  0  0  0  0 
    5.0137   -3.5391   -0.7999 C   0  0  0  0  0  0  0  0  0  0  0  0 
    6.0941   -3.6092    1.3458 C   0  0  0  0  0  0  0  0  0  0  0  0 
    4.1160   -2.5976   -0.3090 C   0  0  0  0  0  0  0  0  0  0  0  0 
    5.1917   -2.6684    1.8439 C   0  0  0  0  0  0  0  0  0  0  0  0 
    7.2750   -5.2435   -1.8217 C   0  0  0  0  0  0  0  0  0  0  0  0 
    6.0280   -4.0704    0.0215 C   0  0  0  0  0  0  0  0  0  0  0  0 
    4.1915   -2.1514    1.0149 C   0  0  0  0  0  0  0  0  0  0  0  0 
    6.9108   -5.0686   -0.4125 N   0  0  0  0  0  0  0  0  0  0  0  0 
    3.2572   -1.2181    1.3932 O   0  0  0  0  0  0  0  0  0  0  0  0 
    2.4921   -0.0172    2.8154 H   0  0  0  0  0  0  0  0  0  0  0  0 
    4.2600   -0.2338    2.9386 H   0  0  0  0  0  0  0  0  0  0  0  0 
    3.1595   -1.5453    3.4540 H   0  0  0  0  0  0  0  0  0  0  0  0 
   10.4182   -5.3236   -3.1183 H   0  0  0  0  0  0  0  0  0  0  0  0 
   11.2591   -5.0072   -1.6034 H   0  0  0  0  0  0  0  0  0  0  0  0 
    9.5364   -6.2403   -0.3283 H   0  0  0  0  0  0  0  0  0  0  0  0 
   10.1323   -7.2680   -1.6142 H   0  0  0  0  0  0  0  0  0  0  0  0 
    9.9245   -3.0108   -2.3632 H   0  0  0  0  0  0  0  0  0  0  0  0 
    9.3677   -3.6005   -0.8064 H   0  0  0  0  0  0  0  0  0  0  0  0 
    7.6188   -7.3547   -1.4792 H   0  0  0  0  0  0  0  0  0  0  0  0 
    8.1903   -6.7610   -3.0402 H   0  0  0  0  0  0  0  0  0  0  0  0 
    8.0694   -4.1777   -3.5280 H   0  0  0  0  0  0  0  0  0  0  0  0 
    7.4209   -3.1195   -2.2770 H   0  0  0  0  0  0  0  0  0  0  0  0 
    4.9166   -3.8657   -1.8299 H   0  0  0  0  0  0  0  0  0  0  0  0 
    6.8649   -4.0009    2.0074 H   0  0  0  0  0  0  0  0  0  0  0  0 
    3.3383   -2.1919   -0.9493 H   0  0  0  0  0  0  0  0  0  0  0  0 
    5.2861   -2.3475    2.8754 H   0  0  0  0  0  0  0  0  0  0  0  0 
    6.3405   -5.4063   -2.3723 H   0  0  0  0  0  0  0  0  0  0  0  0 
    7.6923   -5.1903    0.2196 H   0  0  0  0  0  0  0  0  0  0  0  0 
  1 16  1  0  0  0  0 
  1 17  1  0  0  0  0 
  1 18  1  0  0  0  0 
  2  4  1  0  0  0  0 
  2 20  1  0  0  0  0 
  2  3  1  0  0  0  0 
  3 21  1  0  0  0  0 
  4 24  1  0  0  0  0 
  5 11  1  0  0  0  0 
  5 25  1  0  0  0  0 
  5  3  1  0  0  0  0 
  6 28  1  0  0  0  0 
  6  4  1  0  0  0  0 
  6 11  1  0  0  0  0 
  7  9  2  0  0  0  0 
  7 12  1  0  0  0  0 
  8 10  1  0  0  0  0 
  8 30  1  0  0  0  0 
  9 13  1  0  0  0  0 
 10 32  1  0  0  0  0 
 11 14  1  0  0  0  0 
 12  8  2  0  0  0  0 
 13 15  1  0  0  0  0 
 13 10  2  0  0  0  0 
 14 12  1  0  0  0  0 
 14 34  1  0  0  0  0 
 15  1  1  0  0  0  0 
 19  2  1  0  0  0  0 
 22  3  1  0  0  0  0 
 23  4  1  0  0  0  0 
 26  5  1  0  0  0  0 
 27  6  1  0  0  0  0 
 29  7  1  0  0  0  0 
 31  9  1  0  0  0  0 
 33 11  1  0  0  0  0 
M  END 
>  <HBA> 
2 
 
>  <HBD> 
1 
 
>  <TPSA> 
21.26 
 
>  <cid> 
13071 
 
>  <dipole> 
1.87 
 
>  <excitation_energy_1> 
4.144 
 
>  <excitation_energy_2> 
4.282 
 
>  <excitation_energy_3> 
4.481 
 
>  <excitation_energy_4> 
4.64 
 
>  <homo_energy> 
-4.71 
 
>  <homo_lumo_gap> 
4.95 
 
>  <logP> 
3.513 
 
>  <lumo_energy> 
0.239 
 
>  <melting_point> 
63.24 
 
>  <molecular_refractivity> 
64.16 
 
>  <oscillator_strength_1> 
0.0388 
 
>  <oscillator_strength_2> 
0.0064 
 
>  <oscillator_strength_3> 
0.0073 
 
>  <oscillator_strength_4> 
0.0012 
 
>  <open_babel_can_smiles> 
COc1ccc(cc1)NC1CCCCC1 
 
>  <mulliken_charges> 
34 
1   -0.209236 
2   -0.254207 
3   -0.27149 
4   -0.264053 
5   -0.275091 
6   -0.263774 
7   -0.180906 
8   -0.209694 
9   -0.184572 
10   -0.197346 
11   0.037551 
12   0.360732 
13   0.367155 
14   -0.672831 
15   -0.514635 
16   0.164009 
17   0.144846 
18   0.145663 
19   0.129168 
20   0.131537 
21   0.124207 
22   0.13739 
23   0.135249 
24   0.127817 
25   0.145509 
26   0.134088 
27   0.124727 
28   0.147517 
29   0.12554 
30   0.112309 
31   0.132564 
32   0.125817 
33   0.135111 
34   0.309329 
 
>  <lowdin_charges> 
34 
1   -0.278442 
2   -0.276189 
3   -0.279405 
4   -0.279871 
5   -0.282403 
6   -0.293306 
7   -0.193882 
8   -0.195886 
9   -0.173648 
10   -0.202435 
11   -0.061276 
12   0.046309 
13   0.077359 
14   -0.308015 
15   -0.209196 
16   0.160122 
17   0.140548 
18   0.141811 
19   0.136647 
20   0.143105 
21   0.13074 
22   0.147638 
23   0.147526 
24   0.135456 
25   0.152069 
26   0.143499 
27   0.138127 
28   0.152879 
29   0.156381 
30   0.150658 
31   0.165167 
32   0.158848 
33   0.143959 
34   0.265108 
 
$$$$ 
 
