PCCDB-ID:  12583 
public computational chemistry database (PCCDB) project, http://pccdb.org 
 
 14 14  0  0  0  0  0  0  0  0999 V2000 
   -0.6563    1.2615   -0.0359 C   0  0  0  0  0  0  0  0  0  0  0  0 
   -0.7241   -1.2485   -0.0058 C   0  0  0  0  0  0  0  0  0  0  0  0 
    1.2992    0.0548    0.0088 C   0  0  0  0  0  0  0  0  0  0  0  0 
   -1.2563    2.3887   -0.0579 N   0  0  0  0  0  0  0  0  0  0  0  0 
   -1.2595   -2.4072    0.0007 N   0  0  0  0  0  0  0  0  0  0  0  0 
   -1.3237    0.0024   -0.0315 N   0  0  0  0  0  0  0  0  0  0  0  0 
    0.7327    1.2090   -0.0163 N   0  0  0  0  0  0  0  0  0  0  0  0 
    0.6689   -1.1543    0.0159 N   0  0  0  0  0  0  0  0  0  0  0  0 
    2.6354   -0.0597    0.0311 O   0  0  0  0  0  0  0  0  0  0  0  0 
   -2.2723    2.2696   -0.0716 H   0  0  0  0  0  0  0  0  0  0  0  0 
   -2.2781   -2.3557   -0.0159 H   0  0  0  0  0  0  0  0  0  0  0  0 
   -2.3343    0.0148   -0.0485 H   0  0  0  0  0  0  0  0  0  0  0  0 
    1.1894   -2.0210    0.0391 H   0  0  0  0  0  0  0  0  0  0  0  0 
    2.9777    0.8532    0.0252 H   0  0  0  0  0  0  0  0  0  0  0  0 
  1  6  1  0  0  0  0 
  1  7  2  0  0  0  0 
  2  5  2  0  0  0  0 
  2  8  1  0  0  0  0 
  3  8  1  0  0  0  0 
  3  9  1  0  0  0  0 
  4  1  1  0  0  0  0 
  6  2  1  0  0  0  0 
  7  3  2  0  0  0  0 
  8 13  1  0  0  0  0 
 10  4  1  0  0  0  0 
 11  5  1  0  0  0  0 
 12  6  1  0  0  0  0 
 14  9  1  0  0  0  0 
M  RAD  1   4   2 
M  END 
>  <HBA> 
5 
 
>  <HBD> 
3 
 
>  <TPSA> 
110.68 
 
>  <cid> 
12583 
 
>  <dipole> 
1.83 
 
>  <excitation_energy_1> 
5.473 
 
>  <excitation_energy_2> 
5.541 
 
>  <excitation_energy_3> 
5.659 
 
>  <excitation_energy_4> 
5.707 
 
>  <homo_energy> 
-6.574 
 
>  <homo_lumo_gap> 
6.294 
 
>  <logP> 
-0.508 
 
>  <lumo_energy> 
-0.28 
 
>  <melting_point> 
216.36 
 
>  <molecular_refractivity> 
31.46 
 
>  <oscillator_strength_1> 
0.0022 
 
>  <oscillator_strength_2> 
0.0835 
 
>  <oscillator_strength_3> 
0.003 
 
>  <oscillator_strength_4> 
0.0013 
 
>  <open_babel_can_smiles> 
N=C1NC(=[N]=C(N1)O)[NH] 
 
>  <mulliken_charges> 
14 
1   0.61679 
2   0.695395 
3   0.724188 
4   -0.612503 
5   -0.647923 
6   -0.699611 
7   -0.508622 
8   -0.650858 
9   -0.600097 
10   0.26571 
11   0.282951 
12   0.330904 
13   0.367734 
14   0.435942 
 
>  <lowdin_charges> 
14 
1   0.131427 
2   0.141546 
3   0.183875 
4   -0.408673 
5   -0.450272 
6   -0.280861 
7   -0.237654 
8   -0.225706 
9   -0.341377 
10   0.243747 
11   0.256918 
12   0.289708 
13   0.318364 
14   0.378958 
 
$$$$ 
 
