PCCDB-ID:  9229 
public computational chemistry database (PCCDB) project, http://pccdb.org 
 
 15 16  0  0  0  0  0  0  0  0999 V2000 
    1.9188    1.0260    0.0025 C   0  0  0  0  0  0  0  0  0  0  0  0 
    2.1891   -0.3417    0.0028 C   0  0  0  0  0  0  0  0  0  0  0  0 
    0.5967    1.5097   -0.0013 C   0  0  0  0  0  0  0  0  0  0  0  0 
    1.1502   -1.2920   -0.0005 C   0  0  0  0  0  0  0  0  0  0  0  0 
   -2.3681   -0.5315   -0.0141 C   0  0  0  0  0  0  0  0  0  0  0  0 
   -0.4103    0.5650   -0.0040 C   0  0  0  0  0  0  0  0  0  0  0  0 
   -0.1404   -0.8013   -0.0031 C   0  0  0  0  0  0  0  0  0  0  0  0 
   -1.7705    0.7701   -0.0071 O   0  0  0  0  0  0  0  0  0  0  0  0 
   -1.3205   -1.5081   -0.0043 O   0  0  0  0  0  0  0  0  0  0  0  0 
    2.7399    1.7366    0.0049 H   0  0  0  0  0  0  0  0  0  0  0  0 
    3.2188   -0.6867    0.0068 H   0  0  0  0  0  0  0  0  0  0  0  0 
    0.3730    2.5711   -0.0024 H   0  0  0  0  0  0  0  0  0  0  0  0 
    1.3471   -2.3586   -0.0027 H   0  0  0  0  0  0  0  0  0  0  0  0 
   -2.9710   -0.6516   -0.9227 H   0  0  0  0  0  0  0  0  0  0  0  0 
   -2.9887   -0.6531    0.8820 H   0  0  0  0  0  0  0  0  0  0  0  0 
  1  2  1  0  0  0  0 
  1 10  1  0  0  0  0 
  2 11  1  0  0  0  0 
  3  1  2  0  0  0  0 
  4  2  2  0  0  0  0 
  5  8  1  0  0  0  0 
  5  9  1  0  0  0  0 
  5 15  1  0  0  0  0 
  6  7  2  0  0  0  0 
  6  3  1  0  0  0  0 
  7  4  1  0  0  0  0 
  8  6  1  0  0  0  0 
  9  7  1  0  0  0  0 
 12  3  1  0  0  0  0 
 13  4  1  0  0  0  0 
 14  5  1  0  0  0  0 
M  END 
>  <HBA> 
2 
 
>  <HBD> 
0 
 
>  <TPSA> 
18.46 
 
>  <cid> 
9229 
 
>  <dipole> 
0.32 
 
>  <excitation_energy_1> 
4.82 
 
>  <excitation_energy_2> 
5.29 
 
>  <excitation_energy_3> 
5.404 
 
>  <excitation_energy_4> 
5.477 
 
>  <homo_energy> 
-5.554 
 
>  <homo_lumo_gap> 
5.655 
 
>  <logP> 
1.415 
 
>  <lumo_energy> 
0.101 
 
>  <melting_point> 
37.77 
 
>  <molecular_refractivity> 
32.51 
 
>  <oscillator_strength_1> 
0.0729 
 
>  <oscillator_strength_2> 
0.0038 
 
>  <oscillator_strength_3> 
0.0404 
 
>  <oscillator_strength_4> 
0.0128 
 
>  <open_babel_can_smiles> 
C1Oc2c(O1)cccc2 
 
>  <mulliken_charges> 
15 
1   -0.143581 
2   -0.14374 
3   -0.183864 
4   -0.183928 
5   0.196106 
6   0.329398 
7   0.329742 
8   -0.532314 
9   -0.532381 
10   0.130432 
11   0.130426 
12   0.143348 
13   0.143337 
14   0.158273 
15   0.158747 
 
>  <lowdin_charges> 
15 
1   -0.165973 
2   -0.164063 
3   -0.182651 
4   -0.181562 
5   0.01815 
6   0.072732 
7   0.070777 
8   -0.210011 
9   -0.208006 
10   0.160757 
11   0.158889 
12   0.167892 
13   0.167715 
14   0.147362 
15   0.147991 
 
$$$$ 
 
