PCCDB-ID:  15975 
public computational chemistry database (PCCDB) project, http://pccdb.org 
 
 35 37  0  0  1  0  0  0  0  0999 V2000 
    2.3064    4.1224   -0.5944 C   0  0  0  0  0  0  0  0  0  0  0  0 
    3.0207    2.7678   -0.3283 C   0  0  0  0  0  0  0  0  0  0  0  0 
    3.8279   -0.3173   -0.9248 C   0  0  0  0  0  0  0  0  0  0  0  0 
    2.7253    0.5220   -1.6089 C   0  0  0  0  0  0  0  0  0  0  0  0 
    8.9545    1.3990   -1.2138 C   0  0  0  0  0  0  0  0  0  0  0  0 
    8.6282    0.5436   -2.2604 C   0  0  0  0  0  0  0  0  0  0  0  0 
    2.0937    4.1385   -2.1181 C   0  0  0  0  0  0  0  0  0  0  0  0 
    6.7134    1.2167   -0.2651 C   0  0  0  0  0  0  0  0  0  0  0  0 
    5.4275   -1.0617   -2.7998 C   0  0  0  0  0  0  0  0  0  0  0  0 
    5.1463   -0.3522   -1.6559 C   0  0  0  0  0  0  0  0  0  0  0  0 
    3.0067    2.0243   -1.6905 C   0  0  1  0  0  0  0  0  0  0  0  0 
    8.0036    1.7316   -0.2247 C   0  0  0  0  0  0  0  0  0  0  0  0 
    6.3593    0.3533   -1.3162 C   0  0  0  0  0  0  0  0  0  0  0  0 
    7.3321    0.0270   -2.3024 C   0  0  0  0  0  0  0  0  0  0  0  0 
    1.9332    2.7164   -2.4261 N   0  0  0  0  0  0  0  0  0  0  0  0 
    6.7298   -0.8336   -3.2006 N   0  0  0  0  0  0  0  0  0  0  0  0 
    8.3174    2.5757    0.8160 O   0  0  0  0  0  0  0  0  0  0  0  0 
    2.8867    4.9844   -0.2510 H   0  0  0  0  0  0  0  0  0  0  0  0 
    1.3393    4.1492   -0.0827 H   0  0  0  0  0  0  0  0  0  0  0  0 
    2.4843    2.1893    0.4325 H   0  0  0  0  0  0  0  0  0  0  0  0 
    4.0448    2.9066    0.0298 H   0  0  0  0  0  0  0  0  0  0  0  0 
    3.4478   -1.3410   -0.8099 H   0  0  0  0  0  0  0  0  0  0  0  0 
    3.9898    0.0535    0.0953 H   0  0  0  0  0  0  0  0  0  0  0  0 
    1.7749    0.3806   -1.0775 H   0  0  0  0  0  0  0  0  0  0  0  0 
    2.5744    0.1337   -2.6265 H   0  0  0  0  0  0  0  0  0  0  0  0 
    9.9573    1.8183   -1.1541 H   0  0  0  0  0  0  0  0  0  0  0  0 
    9.3663    0.2906   -3.0171 H   0  0  0  0  0  0  0  0  0  0  0  0 
    2.9725    4.5935   -2.6146 H   0  0  0  0  0  0  0  0  0  0  0  0 
    1.2075    4.7066   -2.4234 H   0  0  0  0  0  0  0  0  0  0  0  0 
    6.0114    1.4863    0.5174 H   0  0  0  0  0  0  0  0  0  0  0  0 
    4.7899   -1.7228   -3.3722 H   0  0  0  0  0  0  0  0  0  0  0  0 
    3.9874    2.1742   -2.1786 H   0  0  0  0  0  0  0  0  0  0  0  0 
    1.9977    2.5357   -3.4266 H   0  0  0  0  0  0  0  0  0  0  0  0 
    7.1829   -1.2724   -3.9862 H   0  0  0  0  0  0  0  0  0  0  0  0 
    9.2431    2.8475    0.7259 H   0  0  0  0  0  0  0  0  0  0  0  0 
  1  2  1  0  0  0  0 
  1 18  1  0  0  0  0 
  1 19  1  0  0  0  0 
  2 21  1  0  0  0  0 
  2 20  1  0  0  0  0 
  3 22  1  0  0  0  0 
  3 23  1  0  0  0  0 
  4 24  1  0  0  0  0 
  4  3  1  0  0  0  0 
  5 26  1  0  0  0  0 
  5 12  2  0  0  0  0 
  6  5  1  0  0  0  0 
  7  1  1  0  0  0  0 
  8 12  1  0  0  0  0 
  8 30  1  0  0  0  0 
  9 10  2  0  0  0  0 
 10 13  1  0  0  0  0 
 10  3  1  0  0  0  0 
 11 32  1  6  0  0  0 
 11  4  1  0  0  0  0 
 11  2  1  0  0  0  0 
 12 17  1  0  0  0  0 
 13  8  2  0  0  0  0 
 14  6  2  0  0  0  0 
 14 13  1  0  0  0  0 
 15  7  1  0  0  0  0 
 15 11  1  0  0  0  0 
 16  9  1  0  0  0  0 
 16 14  1  0  0  0  0 
 25  4  1  0  0  0  0 
 27  6  1  0  0  0  0 
 28  7  1  0  0  0  0 
 29  7  1  0  0  0  0 
 31  9  1  0  0  0  0 
 33 15  1  0  0  0  0 
 34 16  1  0  0  0  0 
 35 17  1  0  0  0  0 
M  END 
>  <HBA> 
2 
 
>  <HBD> 
3 
 
>  <TPSA> 
48.05 
 
>  <cid> 
15975 
 
>  <dipole> 
3.6 
 
>  <excitation_energy_1> 
4.265 
 
>  <excitation_energy_2> 
4.526 
 
>  <excitation_energy_3> 
4.625 
 
>  <excitation_energy_4> 
4.691 
 
>  <homo_energy> 
-5.099 
 
>  <homo_lumo_gap> 
4.944 
 
>  <logP> 
2.887 
 
>  <lumo_energy> 
-0.155 
 
>  <melting_point> 
187.18 
 
>  <molecular_refractivity> 
73.93 
 
>  <oscillator_strength_1> 
0.0595 
 
>  <oscillator_strength_2> 
0.0003 
 
>  <oscillator_strength_3> 
0.0832 
 
>  <oscillator_strength_4> 
0.0001 
 
>  <open_babel_can_smiles> 
Oc1ccc2c(c1)c(CC[C@@H]1CCCN1)c[nH]2 
 
>  <mulliken_charges> 
35 
1   -0.271868 
2   -0.29124 
3   -0.355133 
4   -0.251987 
5   -0.218937 
6   -0.167093 
7   -0.123167 
8   -0.260906 
9   -0.002379 
10   0.069913 
11   0.059118 
12   0.353405 
13   0.074727 
14   0.314352 
15   -0.572479 
16   -0.694675 
17   -0.656084 
18   0.134411 
19   0.144345 
20   0.137045 
21   0.147607 
22   0.140267 
23   0.147614 
24   0.134919 
25   0.118368 
26   0.110775 
27   0.122613 
28   0.109342 
29   0.133474 
30   0.136944 
31   0.14386 
32   0.119227 
33   0.287621 
34   0.32383 
35   0.402172 
 
>  <lowdin_charges> 
35 
1   -0.284099 
2   -0.291243 
3   -0.270351 
4   -0.273604 
5   -0.217786 
6   -0.177953 
7   -0.207045 
8   -0.203042 
9   -0.137565 
10   -0.065404 
11   -0.067134 
12   0.090389 
13   -0.024112 
14   0.016249 
15   -0.368468 
16   -0.203759 
17   -0.391529 
18   0.146077 
19   0.147918 
20   0.146491 
21   0.148808 
22   0.150493 
23   0.149909 
24   0.144206 
25   0.135691 
26   0.149911 
27   0.157093 
28   0.115295 
29   0.142536 
30   0.165827 
31   0.163314 
32   0.122517 
33   0.247539 
34   0.290644 
35   0.352186 
 
$$$$ 
 
