PCCDB-ID:  11239 
public computational chemistry database (PCCDB) project, http://pccdb.org 
 
 15 14  0  0  0  0  0  0  0  0999 V2000 
    1.2921    0.5518    0.5278 C   0  0  0  0  0  0  0  0  0  0  0  0 
    2.8783   -2.5152   -0.3771 C   0  0  0  0  0  0  0  0  0  0  0  0 
    4.5681   -0.8700    0.5554 C   0  0  0  0  0  0  0  0  0  0  0  0 
    2.2729   -0.0954   -0.1020 C   0  0  0  0  0  0  0  0  0  0  0  0 
    3.0756   -1.2403    0.4647 C   0  0  0  0  0  0  0  0  0  0  0  0 
    0.7514    1.3708    0.0604 H   0  0  0  0  0  0  0  0  0  0  0  0 
    0.9903    0.2871    1.5397 H   0  0  0  0  0  0  0  0  0  0  0  0 
    3.4552   -3.3507    0.0374 H   0  0  0  0  0  0  0  0  0  0  0  0 
    3.2146   -2.3588   -1.4103 H   0  0  0  0  0  0  0  0  0  0  0  0 
    1.8237   -2.8092   -0.4095 H   0  0  0  0  0  0  0  0  0  0  0  0 
    5.1512   -1.6976    0.9769 H   0  0  0  0  0  0  0  0  0  0  0  0 
    4.7197    0.0125    1.1862 H   0  0  0  0  0  0  0  0  0  0  0  0 
    4.9779   -0.6465   -0.4381 H   0  0  0  0  0  0  0  0  0  0  0  0 
    2.5413    0.2054   -1.1178 H   0  0  0  0  0  0  0  0  0  0  0  0 
    2.7098   -1.4409    1.4816 H   0  0  0  0  0  0  0  0  0  0  0  0 
  1  7  1  0  0  0  0 
  2  8  1  0  0  0  0 
  2  5  1  0  0  0  0 
  3 11  1  0  0  0  0 
  3 12  1  0  0  0  0 
  4  5  1  0  0  0  0 
  4  1  2  0  0  0  0 
  5  3  1  0  0  0  0 
  5 15  1  0  0  0  0 
  6  1  1  0  0  0  0 
  9  2  1  0  0  0  0 
 10  2  1  0  0  0  0 
 13  3  1  0  0  0  0 
 14  4  1  0  0  0  0 
M  END 
>  <HBA> 
0 
 
>  <HBD> 
0 
 
>  <TPSA> 
0.0 
 
>  <cid> 
11239 
 
>  <dipole> 
0.3 
 
>  <excitation_energy_1> 
6.504 
 
>  <excitation_energy_2> 
6.912 
 
>  <excitation_energy_3> 
6.958 
 
>  <excitation_energy_4> 
7.038 
 
>  <homo_energy> 
-6.797 
 
>  <homo_lumo_gap> 
7.508 
 
>  <logP> 
1.828 
 
>  <lumo_energy> 
0.71 
 
>  <melting_point> 
-46.5 
 
>  <molecular_refractivity> 
25.68 
 
>  <oscillator_strength_1> 
0.0568 
 
>  <oscillator_strength_2> 
0.0017 
 
>  <oscillator_strength_3> 
0.0007 
 
>  <oscillator_strength_4> 
0.4112 
 
>  <open_babel_can_smiles> 
C=CC(C)C 
 
>  <mulliken_charges> 
15 
1   -0.348542 
2   -0.441126 
3   -0.441004 
4   -0.031514 
5   -0.113656 
6   0.136683 
7   0.133417 
8   0.141258 
9   0.139612 
10   0.149604 
11   0.141245 
12   0.14956 
13   0.139559 
14   0.118296 
15   0.126608 
 
>  <lowdin_charges> 
15 
1   -0.346943 
2   -0.441241 
3   -0.443801 
4   -0.14083 
5   -0.116945 
6   0.157865 
7   0.15199 
8   0.149332 
9   0.145176 
10   0.151321 
11   0.149484 
12   0.152949 
13   0.145813 
14   0.145768 
15   0.140061 
 
$$$$ 
 
