PCCDB-ID:  65021 
public computational chemistry database (PCCDB) project, http://pccdb.org 
 
 30 29  0  0  1  0  0  0  0  0999 V2000 
   -1.7086   -1.5166   -3.4732 C   0  0  0  0  0  0  0  0  0  0  0  0 
   -0.5965   -1.2085   -2.4587 C   0  0  0  0  0  0  0  0  0  0  0  0 
   -2.9865   -0.6935   -3.2815 C   0  0  0  0  0  0  0  0  0  0  0  0 
    0.2510   -1.2411   -0.0393 C   0  0  0  0  0  0  0  0  0  0  0  0 
   -1.0570    0.7675    1.7669 C   0  0  0  0  0  0  0  0  0  0  0  0 
   -0.9052   -1.6148   -0.9990 C   0  0  2  0  0  0  0  0  0  0  0  0 
    0.5229    0.2520    0.0529 C   0  0  0  0  0  0  0  0  0  0  0  0 
   -3.9849   -1.0701   -4.2886 N   0  0  0  0  0  0  0  0  0  0  0  0 
   -0.9223    1.4994    3.0195 N   0  0  0  0  0  0  0  0  0  0  0  0 
   -1.2001   -3.0405   -0.7999 N   0  0  0  0  0  0  0  0  0  0  0  0 
   -0.0322    1.1168    0.7940 N   0  0  0  0  0  0  0  0  0  0  0  0 
    1.4723    0.7296   -0.8184 O   0  0  0  0  0  0  0  0  0  0  0  0 
   -1.9709   -2.5817   -3.4502 H   0  0  0  0  0  0  0  0  0  0  0  0 
   -1.3193   -1.3257   -4.4836 H   0  0  0  0  0  0  0  0  0  0  0  0 
   -0.3617   -0.1364   -2.4960 H   0  0  0  0  0  0  0  0  0  0  0  0 
    0.3189   -1.7373   -2.7708 H   0  0  0  0  0  0  0  0  0  0  0  0 
   -2.7240    0.3811   -3.2832 H   0  0  0  0  0  0  0  0  0  0  0  0 
   -3.4242   -0.9022   -2.2970 H   0  0  0  0  0  0  0  0  0  0  0  0 
   -0.0021   -1.6381    0.9470 H   0  0  0  0  0  0  0  0  0  0  0  0 
    1.1656   -1.7658   -0.3561 H   0  0  0  0  0  0  0  0  0  0  0  0 
   -2.0356    1.0234    1.3392 H   0  0  0  0  0  0  0  0  0  0  0  0 
   -1.0873   -0.3034    2.0172 H   0  0  0  0  0  0  0  0  0  0  0  0 
   -1.7937   -1.0676   -0.6599 H   0  0  0  0  0  0  0  0  0  0  0  0 
   -3.6589   -0.7871   -5.2125 H   0  0  0  0  0  0  0  0  0  0  0  0 
   -4.8492   -0.5553   -4.1279 H   0  0  0  0  0  0  0  0  0  0  0  0 
   -0.8759    2.4948    2.8003 H   0  0  0  0  0  0  0  0  0  0  0  0 
   -0.0141    1.2764    3.4273 H   0  0  0  0  0  0  0  0  0  0  0  0 
   -0.4635   -3.6073   -1.2225 H   0  0  0  0  0  0  0  0  0  0  0  0 
   -2.0601   -3.2921   -1.2844 H   0  0  0  0  0  0  0  0  0  0  0  0 
    1.8509   -0.0152   -1.3084 H   0  0  0  0  0  0  0  0  0  0  0  0 
  1 13  1  0  0  0  0 
  1  3  1  0  0  0  0 
  1  2  1  0  0  0  0 
  2  6  1  0  0  0  0 
  3 18  1  0  0  0  0 
  4  7  1  0  0  0  0 
  4 19  1  0  0  0  0 
  5 22  1  0  0  0  0 
  5  9  1  0  0  0  0 
  6 10  1  0  0  0  0 
  6 23  1  1  0  0  0 
  6  4  1  0  0  0  0 
  7 11  2  0  0  0  0 
  8 25  1  0  0  0  0 
  8  3  1  0  0  0  0 
  9 27  1  0  0  0  0 
 11  5  1  0  0  0  0 
 12  7  1  0  0  0  0 
 14  1  1  0  0  0  0 
 15  2  1  0  0  0  0 
 16  2  1  0  0  0  0 
 17  3  1  0  0  0  0 
 20  4  1  0  0  0  0 
 21  5  1  0  0  0  0 
 24  8  1  0  0  0  0 
 26  9  1  0  0  0  0 
 28 10  1  0  0  0  0 
 29 10  1  0  0  0  0 
 30 12  1  0  0  0  0 
M  END 
>  <HBA> 
5 
 
>  <HBD> 
4 
 
>  <TPSA> 
107.16 
 
>  <cid> 
65021 
 
>  <dipole> 
3.69 
 
>  <excitation_energy_1> 
5.602 
 
>  <excitation_energy_2> 
5.62 
 
>  <excitation_energy_3> 
5.718 
 
>  <excitation_energy_4> 
5.798 
 
>  <homo_energy> 
-6.354 
 
>  <homo_lumo_gap> 
6.95 
 
>  <logP> 
0.967 
 
>  <lumo_energy> 
0.596 
 
>  <melting_point> 
184.09 
 
>  <molecular_refractivity> 
46.89 
 
>  <oscillator_strength_1> 
0.003 
 
>  <oscillator_strength_2> 
0.0131 
 
>  <oscillator_strength_3> 
0.0095 
 
>  <oscillator_strength_4> 
0.0619 
 
>  <open_babel_can_smiles> 
NCCC[C@H](C/C(=N\CN)/O)N 
 
>  <mulliken_charges> 
30 
1   -0.253909 
2   -0.289423 
3   -0.138349 
4   -0.359239 
5   -0.053019 
6   0.02019 
7   0.479549 
8   -0.717708 
9   -0.688573 
10   -0.713989 
11   -0.423778 
12   -0.583396 
13   0.135449 
14   0.130357 
15   0.153467 
16   0.111637 
17   0.12052 
18   0.140185 
19   0.184861 
20   0.125012 
21   0.149735 
22   0.133694 
23   0.152265 
24   0.293007 
25   0.298413 
26   0.299179 
27   0.291316 
28   0.290758 
29   0.310265 
30   0.401526 
 
>  <lowdin_charges> 
30 
1   -0.281092 
2   -0.302236 
3   -0.205481 
4   -0.313442 
5   -0.145303 
6   -0.064911 
7   0.124599 
8   -0.557774 
9   -0.540332 
10   -0.55063 
11   -0.226965 
12   -0.375288 
13   0.140579 
14   0.142351 
15   0.151016 
16   0.133184 
17   0.118533 
18   0.139278 
19   0.173578 
20   0.142615 
21   0.143981 
22   0.128407 
23   0.147806 
24   0.251444 
25   0.256447 
26   0.254339 
27   0.251015 
28   0.252549 
29   0.261635 
30   0.3501 
 
$$$$ 
 
