PCCDB-ID:  54198 
public computational chemistry database (PCCDB) project, http://pccdb.org 
 
 20 20  0  0  0  0  0  0  0  0999 V2000 
   -0.6765    1.1163    0.0470 C   0  0  0  0  0  0  0  0  0  0  0  0 
   -1.3716   -0.0916    0.0444 C   0  0  0  0  0  0  0  0  0  0  0  0 
    0.7674   -1.2590   -0.1384 C   0  0  0  0  0  0  0  0  0  0  0  0 
    1.4389    2.4949   -0.1010 C   0  0  0  0  0  0  0  0  0  0  0  0 
    0.7155    1.1704   -0.0497 C   0  0  0  0  0  0  0  0  0  0  0  0 
   -0.6202   -1.2594   -0.0520 C   0  0  0  0  0  0  0  0  0  0  0  0 
    1.4579   -0.0380   -0.1359 C   0  0  0  0  0  0  0  0  0  0  0  0 
    2.8360    0.0075   -0.2700 N   0  0  0  0  0  0  0  0  0  0  0  0 
   -1.3194   -2.5566   -0.0536 N   0  0  0  0  0  0  0  0  0  0  0  0 
    2.4837    2.6104    0.8787 O   0  0  0  0  0  0  0  0  0  0  0  0 
   -2.5475   -2.5450    0.0264 O   0  0  0  0  0  0  0  0  0  0  0  0 
   -0.6364   -3.5781   -0.1338 O   0  0  0  0  0  0  0  0  0  0  0  0 
   -1.2323    2.0483    0.1189 H   0  0  0  0  0  0  0  0  0  0  0  0 
   -2.4499   -0.1403    0.1163 H   0  0  0  0  0  0  0  0  0  0  0  0 
    1.2960   -2.2024   -0.2092 H   0  0  0  0  0  0  0  0  0  0  0  0 
    0.7230    3.3225   -0.0041 H   0  0  0  0  0  0  0  0  0  0  0  0 
    1.9546    2.6102   -1.0611 H   0  0  0  0  0  0  0  0  0  0  0  0 
    3.3235   -0.8653   -0.1162 H   0  0  0  0  0  0  0  0  0  0  0  0 
    3.2757    0.8089    0.1713 H   0  0  0  0  0  0  0  0  0  0  0  0 
    2.0748    2.4957    1.7519 H   0  0  0  0  0  0  0  0  0  0  0  0 
  1 13  1  0  0  0  0 
  2  1  1  0  0  0  0 
  2 14  1  0  0  0  0 
  3  7  2  0  0  0  0 
  3  6  1  0  0  0  0 
  4  5  1  0  0  0  0 
  4 16  1  0  0  0  0 
  4 10  1  0  0  0  0 
  5  1  2  0  0  0  0 
  6  2  2  0  0  0  0 
  7  5  1  0  0  0  0 
  8  7  1  0  0  0  0 
  8 18  1  0  0  0  0 
  8 19  1  0  0  0  0 
  9  6  1  0  0  0  0 
  9 11  2  0  0  0  0 
 10 20  1  0  0  0  0 
 12  9  2  0  0  0  0 
 15  3  1  0  0  0  0 
 17  4  1  0  0  0  0 
M  END 
>  <HBA> 
2 
 
>  <HBD> 
2 
 
>  <TPSA> 
92.07 
 
>  <cid> 
54198 
 
>  <dipole> 
4.78 
 
>  <excitation_energy_1> 
3.068 
 
>  <excitation_energy_2> 
3.727 
 
>  <excitation_energy_3> 
4.263 
 
>  <excitation_energy_4> 
4.45 
 
>  <homo_energy> 
-6.068 
 
>  <homo_lumo_gap> 
3.772 
 
>  <logP> 
1.774 
 
>  <lumo_energy> 
-2.297 
 
>  <melting_point> 
115.73 
 
>  <molecular_refractivity> 
45.8 
 
>  <oscillator_strength_1> 
0.0339 
 
>  <oscillator_strength_2> 
0.0 
 
>  <oscillator_strength_3> 
0.0004 
 
>  <oscillator_strength_4> 
0.1502 
 
>  <open_babel_can_smiles> 
OCc1ccc(cc1N)N(=O)=O 
 
>  <mulliken_charges> 
20 
1   -0.211689 
2   -0.160724 
3   -0.21237 
4   -0.129351 
5   0.11145 
6   0.274435 
7   0.278226 
8   -0.812254 
9   0.37783 
10   -0.613589 
11   -0.394498 
12   -0.398214 
13   0.138598 
14   0.174528 
15   0.170775 
16   0.146473 
17   0.178607 
18   0.326815 
19   0.357549 
20   0.397405 
 
>  <lowdin_charges> 
20 
1   -0.151063 
2   -0.170424 
3   -0.188241 
4   -0.136171 
5   -0.056059 
6   0.01349 
7   0.068208 
8   -0.485367 
9   0.306732 
10   -0.464152 
11   -0.244726 
12   -0.250733 
13   0.162483 
14   0.183538 
15   0.182688 
16   0.145531 
17   0.164083 
18   0.280729 
19   0.292027 
20   0.347428 
 
$$$$ 
 
