PCCDB-ID:  22460 
public computational chemistry database (PCCDB) project, http://pccdb.org 
 
 20 20  0  0  0  0  0  0  0  0999 V2000 
    0.9130   -1.0383   -0.3054 C   0  0  0  0  0  0  0  0  0  0  0  0 
    2.3394   -0.4862   -0.3907 C   0  0  0  0  0  0  0  0  0  0  0  0 
    2.9678   -0.2537    0.9891 C   0  0  0  0  0  0  0  0  0  0  0  0 
    4.3957    0.2939    0.8941 C   0  0  0  0  0  0  0  0  0  0  0  0 
    5.8249    0.0002    4.0649 C   0  0  0  0  0  0  0  0  0  0  0  0 
    5.3087    1.6267    2.8595 C   0  0  0  0  0  0  0  0  0  0  0  0 
    5.8290    1.3620    4.0471 N   0  0  0  0  0  0  0  0  0  0  0  0 
    5.3414   -0.5831    2.9761 N   0  0  0  0  0  0  0  0  0  0  0  0 
    5.0130    0.4839    2.2008 N   0  0  0  0  0  0  0  0  0  0  0  0 
    0.4893   -1.1998   -1.3028 H   0  0  0  0  0  0  0  0  0  0  0  0 
    0.2516   -0.3471    0.2308 H   0  0  0  0  0  0  0  0  0  0  0  0 
    0.8920   -1.9969    0.2265 H   0  0  0  0  0  0  0  0  0  0  0  0 
    2.3340    0.4567   -0.9562 H   0  0  0  0  0  0  0  0  0  0  0  0 
    2.9676   -1.1829   -0.9634 H   0  0  0  0  0  0  0  0  0  0  0  0 
    2.9944   -1.1922    1.5555 H   0  0  0  0  0  0  0  0  0  0  0  0 
    2.3531    0.4486    1.5682 H   0  0  0  0  0  0  0  0  0  0  0  0 
    4.4109    1.2661    0.3897 H   0  0  0  0  0  0  0  0  0  0  0  0 
    5.0325   -0.3893    0.3222 H   0  0  0  0  0  0  0  0  0  0  0  0 
    6.1917   -0.5801    4.9009 H   0  0  0  0  0  0  0  0  0  0  0  0 
    5.1345    2.6087    2.4399 H   0  0  0  0  0  0  0  0  0  0  0  0 
  1 12  1  0  0  0  0 
  1 11  1  0  0  0  0 
  2  1  1  0  0  0  0 
  2  3  1  0  0  0  0 
  3 15  1  0  0  0  0 
  3 16  1  0  0  0  0 
  4  3  1  0  0  0  0 
  4  9  1  0  0  0  0 
  5 19  1  0  0  0  0 
  6  7  1  0  0  0  0 
  7  5  2  0  0  0  0 
  8  5  1  0  0  0  0 
  9  6  1  0  0  0  0 
  9  8  1  0  0  0  0 
 10  1  1  0  0  0  0 
 13  2  1  0  0  0  0 
 14  2  1  0  0  0  0 
 17  4  1  0  0  0  0 
 18  4  1  0  0  0  0 
 20  6  1  0  0  0  0 
M  RAD  1   8   2 
M  END 
>  <HBA> 
3 
 
>  <HBD> 
0 
 
>  <TPSA> 
30.71 
 
>  <cid> 
22460 
 
>  <dipole> 
3.47 
 
>  <excitation_energy_1> 
6.168 
 
>  <excitation_energy_2> 
6.524 
 
>  <excitation_energy_3> 
6.711 
 
>  <excitation_energy_4> 
7.02 
 
>  <homo_energy> 
-7.072 
 
>  <homo_lumo_gap> 
7.369 
 
>  <logP> 
1.078 
 
>  <lumo_energy> 
0.297 
 
>  <melting_point> 
34.5 
 
>  <molecular_refractivity> 
35.7 
 
>  <oscillator_strength_1> 
0.0035 
 
>  <oscillator_strength_2> 
0.0598 
 
>  <oscillator_strength_3> 
0.0515 
 
>  <oscillator_strength_4> 
0.049 
 
>  <open_babel_can_smiles> 
CCCCN1CN=C[N]1 
 
>  <mulliken_charges> 
20 
1   -0.442538 
2   -0.256014 
3   -0.256107 
4   -0.141953 
5   0.158942 
6   0.208813 
7   -0.437676 
8   -0.274031 
9   -0.235997 
10   0.147479 
11   0.146193 
12   0.149503 
13   0.133073 
14   0.139018 
15   0.170076 
16   0.141843 
17   0.155423 
18   0.174897 
19   0.15506 
20   0.163996 
 
>  <lowdin_charges> 
20 
1   -0.443195 
2   -0.27419 
3   -0.282636 
4   -0.193325 
5   -0.103608 
6   -0.093614 
7   -0.194107 
8   -0.163678 
9   0.040116 
10   0.15219 
11   0.150338 
12   0.150501 
13   0.139691 
14   0.144419 
15   0.159867 
16   0.148099 
17   0.155752 
18   0.165438 
19   0.169021 
20   0.17292 
 
$$$$ 
 
