PCCDB-ID:  15173 
public computational chemistry database (PCCDB) project, http://pccdb.org 
 
 22 22  0  0  0  0  0  0  0  0999 V2000 
    1.8913    0.7605    1.0506 C   0  0  0  0  0  0  0  0  0  0  0  0 
    3.9915    3.3126   -2.7649 C   0  0  0  0  0  0  0  0  0  0  0  0 
    3.4217    3.7043   -1.5524 C   0  0  0  0  0  0  0  0  0  0  0  0 
    4.0697   -1.0332   -3.6661 C   0  0  0  0  0  0  0  0  0  0  0  0 
    4.0407    1.9617   -3.0901 C   0  0  0  0  0  0  0  0  0  0  0  0 
    3.5734   -0.4500   -2.5527 C   0  0  0  0  0  0  0  0  0  0  0  0 
    2.9052    2.7539   -0.6717 C   0  0  0  0  0  0  0  0  0  0  0  0 
    4.0297   -2.4877   -3.8205 C   0  0  0  0  0  0  0  0  0  0  0  0 
    3.5318    0.9727   -2.2307 C   0  0  0  0  0  0  0  0  0  0  0  0 
    2.9566    1.3950   -1.0017 C   0  0  0  0  0  0  0  0  0  0  0  0 
    4.4555   -3.0946   -4.7887 O   0  0  0  0  0  0  0  0  0  0  0  0 
    2.4718    0.4080   -0.1970 O   0  0  0  0  0  0  0  0  0  0  0  0 
    1.5875   -0.1804    1.5122 H   0  0  0  0  0  0  0  0  0  0  0  0 
    1.0104    1.4009    0.9163 H   0  0  0  0  0  0  0  0  0  0  0  0 
    2.6150    1.2680    1.7007 H   0  0  0  0  0  0  0  0  0  0  0  0 
    4.3939    4.0535   -3.4489 H   0  0  0  0  0  0  0  0  0  0  0  0 
    3.3761    4.7563   -1.2840 H   0  0  0  0  0  0  0  0  0  0  0  0 
    4.5150   -0.4770   -4.4871 H   0  0  0  0  0  0  0  0  0  0  0  0 
    4.4838    1.6576   -4.0333 H   0  0  0  0  0  0  0  0  0  0  0  0 
    3.1500   -1.1057   -1.7950 H   0  0  0  0  0  0  0  0  0  0  0  0 
    2.4650    3.0772    0.2641 H   0  0  0  0  0  0  0  0  0  0  0  0 
    3.5678   -3.0315   -2.9640 H   0  0  0  0  0  0  0  0  0  0  0  0 
  1 13  1  0  0  0  0 
  1 15  1  0  0  0  0 
  2  3  1  0  0  0  0 
  3 17  1  0  0  0  0 
  3  7  2  0  0  0  0 
  4  6  2  0  0  0  0 
  5  2  2  0  0  0  0 
  5  9  1  0  0  0  0 
  6  9  1  0  0  0  0 
  6 20  1  0  0  0  0 
  7 21  1  0  0  0  0 
  8  4  1  0  0  0  0 
  8 22  1  0  0  0  0 
  9 10  2  0  0  0  0 
 10  7  1  0  0  0  0 
 10 12  1  0  0  0  0 
 11  8  2  0  0  0  0 
 12  1  1  0  0  0  0 
 14  1  1  0  0  0  0 
 16  2  1  0  0  0  0 
 18  4  1  0  0  0  0 
 19  5  1  0  0  0  0 
M  END 
>  <HBA> 
2 
 
>  <HBD> 
0 
 
>  <TPSA> 
26.3 
 
>  <cid> 
15173 
 
>  <dipole> 
6.22 
 
>  <excitation_energy_1> 
3.385 
 
>  <excitation_energy_2> 
3.785 
 
>  <excitation_energy_3> 
4.401 
 
>  <excitation_energy_4> 
5.312 
 
>  <homo_energy> 
-6.114 
 
>  <homo_lumo_gap> 
4.196 
 
>  <logP> 
1.907 
 
>  <lumo_energy> 
-1.918 
 
>  <melting_point> 
64.01 
 
>  <molecular_refractivity> 
48.03 
 
>  <oscillator_strength_1> 
0.0001 
 
>  <oscillator_strength_2> 
0.29 
 
>  <oscillator_strength_3> 
0.3972 
 
>  <oscillator_strength_4> 
0.041 
 
>  <open_babel_can_smiles> 
O=C/C=C/c1ccccc1OC 
 
>  <mulliken_charges> 
22 
1   -0.218999 
2   -0.12999 
3   -0.131789 
4   -0.158232 
5   -0.185904 
6   -0.154317 
7   -0.194217 
8   0.232662 
9   0.099972 
10   0.326536 
11   -0.429735 
12   -0.508517 
13   0.176789 
14   0.158668 
15   0.15874 
16   0.13605 
17   0.13897 
18   0.145653 
19   0.141873 
20   0.163191 
21   0.138856 
22   0.093741 
 
>  <lowdin_charges> 
22 
1   -0.277808 
2   -0.174547 
3   -0.13227 
4   -0.201451 
5   -0.132786 
6   -0.111627 
7   -0.210949 
8   0.036124 
9   -0.03898 
10   0.107647 
11   -0.242084 
12   -0.193627 
13   0.167163 
14   0.149403 
15   0.150829 
16   0.163532 
17   0.161147 
18   0.164829 
19   0.164417 
20   0.173491 
21   0.165766 
22   0.111781 
 
$$$$ 
 
