PCCDB-ID:  73142 
public computational chemistry database (PCCDB) project, http://pccdb.org 
 
 18 19  0  0  0  0  0  0  0  0999 V2000 
   -2.1126   -0.7381    0.0948 C   0  0  0  0  0  0  0  0  0  0  0  0 
   -2.1116    0.6814    0.1103 C   0  0  0  0  0  0  0  0  0  0  0  0 
   -0.9267   -1.4321    0.0257 C   0  0  0  0  0  0  0  0  0  0  0  0 
   -0.9357    1.3809    0.0581 C   0  0  0  0  0  0  0  0  0  0  0  0 
    2.3143   -0.0638   -0.1282 C   0  0  0  0  0  0  0  0  0  0  0  0 
    1.5699    1.1164   -0.0752 C   0  0  0  0  0  0  0  0  0  0  0  0 
    0.2866   -0.7165   -0.0302 C   0  0  0  0  0  0  0  0  0  0  0  0 
    1.9385    2.5288   -0.0817 C   0  0  0  0  0  0  0  0  0  0  0  0 
    1.5486   -1.1697   -0.1017 N   0  0  0  0  0  0  0  0  0  0  0  0 
    0.2450    0.6826   -0.0105 N   0  0  0  0  0  0  0  0  0  0  0  0 
    1.1430    3.4462   -0.0188 O   0  0  0  0  0  0  0  0  0  0  0  0 
    3.2694    2.8036   -0.1631 O   0  0  0  0  0  0  0  0  0  0  0  0 
   -3.0556   -1.2740    0.1388 H   0  0  0  0  0  0  0  0  0  0  0  0 
   -3.0431    1.2336    0.1648 H   0  0  0  0  0  0  0  0  0  0  0  0 
   -0.8805   -2.5148    0.0107 H   0  0  0  0  0  0  0  0  0  0  0  0 
   -0.8416    2.4576    0.0660 H   0  0  0  0  0  0  0  0  0  0  0  0 
    3.3948   -0.1518   -0.1818 H   0  0  0  0  0  0  0  0  0  0  0  0 
    3.7900    1.9861   -0.2209 H   0  0  0  0  0  0  0  0  0  0  0  0 
  1  2  1  0  0  0  0 
  1 13  1  0  0  0  0 
  2 14  1  0  0  0  0 
  3  1  2  0  0  0  0 
  4 16  1  0  0  0  0 
  4  2  2  0  0  0  0 
  5  9  1  0  0  0  0 
  5  6  2  0  0  0  0 
  6 10  1  0  0  0  0 
  7 10  1  0  0  0  0 
  7  3  1  0  0  0  0 
  8  6  1  0  0  0  0 
  8 11  2  0  0  0  0 
  9  7  2  0  0  0  0 
 10  4  1  0  0  0  0 
 12  8  1  0  0  0  0 
 15  3  1  0  0  0  0 
 17  5  1  0  0  0  0 
 18 12  1  0  0  0  0 
M  END 
>  <HBA> 
4 
 
>  <HBD> 
1 
 
>  <TPSA> 
54.6 
 
>  <cid> 
73142 
 
>  <dipole> 
2.67 
 
>  <excitation_energy_1> 
4.365 
 
>  <excitation_energy_2> 
4.436 
 
>  <excitation_energy_3> 
4.934 
 
>  <excitation_energy_4> 
5.455 
 
>  <homo_energy> 
-6.289 
 
>  <homo_lumo_gap> 
4.928 
 
>  <logP> 
1.032 
 
>  <lumo_energy> 
-1.361 
 
>  <melting_point> 
148.71 
 
>  <molecular_refractivity> 
42.15 
 
>  <oscillator_strength_1> 
0.0433 
 
>  <oscillator_strength_2> 
0.157 
 
>  <oscillator_strength_3> 
0.0 
 
>  <oscillator_strength_4> 
0.0022 
 
>  <open_babel_can_smiles> 
OC(=O)c1cnc2n1cccc2 
 
>  <mulliken_charges> 
18 
1   -0.110114 
2   -0.187942 
3   -0.178081 
4   0.07215 
5   -0.056621 
6   0.210921 
7   0.523584 
8   0.582572 
9   -0.50211 
10   -0.554541 
11   -0.481021 
12   -0.582267 
13   0.152699 
14   0.157636 
15   0.166204 
16   0.227561 
17   0.142804 
18   0.416565 
 
>  <lowdin_charges> 
18 
1   -0.140849 
2   -0.17626 
3   -0.155844 
4   -0.087277 
5   -0.115259 
6   -0.091076 
7   0.078028 
8   0.197568 
9   -0.191584 
10   0.059285 
11   -0.26784 
12   -0.355432 
13   0.170288 
14   0.17575 
15   0.18099 
16   0.200586 
17   0.159254 
18   0.359672 
 
$$$$ 
 
