PCCDB-ID:  49307 
public computational chemistry database (PCCDB) project, http://pccdb.org 
 
 29 29  0  0  1  0  0  0  0  0999 V2000 
    1.3322   -2.4922    1.5400 C   0  0  0  0  0  0  0  0  0  0  0  0 
    3.7621    0.0319   -2.3909 C   0  0  0  0  0  0  0  0  0  0  0  0 
    6.2210   -0.2532   -2.1054 C   0  0  0  0  0  0  0  0  0  0  0  0 
    2.8305   -2.3565    1.2469 C   0  0  0  0  0  0  0  0  0  0  0  0 
    3.0844   -1.5229   -0.0175 C   0  0  0  0  0  0  0  0  0  0  0  0 
    4.7837   -0.4757   -1.6856 C   0  0  0  0  0  0  0  0  0  0  0  0 
    5.2376   -2.6880   -0.6164 C   0  0  0  0  0  0  0  0  0  0  0  0 
    5.3195   -0.6478    0.7496 C   0  0  0  0  0  0  0  0  0  0  0  0 
    6.3520   -2.6134    1.4149 C   0  0  0  0  0  0  0  0  0  0  0  0 
    4.5854   -1.3195   -0.4122 C   0  0  2  0  0  0  0  0  0  0  0  0 
    6.0204   -3.2714    0.1980 N   0  0  0  0  0  0  0  0  0  0  0  0 
    6.1023   -1.2216    1.5707 N   0  0  0  0  0  0  0  0  0  0  0  0 
    4.9058   -3.3320   -1.7548 O   0  0  0  0  0  0  0  0  0  0  0  0 
    5.0667    0.6666    0.9207 O   0  0  0  0  0  0  0  0  0  0  0  0 
    6.8772   -3.2337    2.3100 O   0  0  0  0  0  0  0  0  0  0  0  0 
    1.1671   -3.0863    2.4445 H   0  0  0  0  0  0  0  0  0  0  0  0 
    0.8057   -2.9881    0.7153 H   0  0  0  0  0  0  0  0  0  0  0  0 
    0.8641   -1.5125    1.6949 H   0  0  0  0  0  0  0  0  0  0  0  0 
    3.9484    0.6208   -3.2851 H   0  0  0  0  0  0  0  0  0  0  0  0 
    2.7211   -0.1089   -2.1214 H   0  0  0  0  0  0  0  0  0  0  0  0 
    6.2750    0.3534   -3.0133 H   0  0  0  0  0  0  0  0  0  0  0  0 
    6.7306   -1.2047   -2.2995 H   0  0  0  0  0  0  0  0  0  0  0  0 
    6.7917    0.2559   -1.3196 H   0  0  0  0  0  0  0  0  0  0  0  0 
    3.2715   -3.3537    1.1322 H   0  0  0  0  0  0  0  0  0  0  0  0 
    3.3295   -1.8933    2.1062 H   0  0  0  0  0  0  0  0  0  0  0  0 
    2.6286   -0.5329    0.1102 H   0  0  0  0  0  0  0  0  0  0  0  0 
    2.5694   -1.9932   -0.8647 H   0  0  0  0  0  0  0  0  0  0  0  0 
    4.3772   -2.7365   -2.3157 H   0  0  0  0  0  0  0  0  0  0  0  0 
    4.5286    0.9876    0.1750 H   0  0  0  0  0  0  0  0  0  0  0  0 
  1 18  1  0  0  0  0 
  1 16  1  0  0  0  0 
  2 20  1  0  0  0  0 
  2  6  2  0  0  0  0 
  3  6  1  0  0  0  0 
  3 23  1  0  0  0  0 
  4  1  1  0  0  0  0 
  4 25  1  0  0  0  0 
  5 26  1  0  0  0  0 
  5  4  1  0  0  0  0 
  7 10  1  0  0  0  0 
  7 11  2  0  0  0  0 
  8 14  1  0  0  0  0 
  8 12  2  0  0  0  0 
  9 12  1  0  0  0  0 
  9 15  2  0  0  0  0 
 10  6  1  6  0  0  0 
 10  5  1  0  0  0  0 
 10  8  1  0  0  0  0 
 11  9  2  0  0  0  0 
 13  7  1  0  0  0  0 
 17  1  1  0  0  0  0 
 19  2  1  0  0  0  0 
 21  3  1  0  0  0  0 
 22  3  1  0  0  0  0 
 24  4  1  0  0  0  0 
 27  5  1  0  0  0  0 
 28 13  1  0  0  0  0 
 29 14  1  0  0  0  0 
M  END 
>  <HBA> 
5 
 
>  <HBD> 
2 
 
>  <TPSA> 
75.27 
 
>  <cid> 
49307 
 
>  <dipole> 
9.54 
 
>  <excitation_energy_1> 
4.019 
 
>  <excitation_energy_2> 
4.239 
 
>  <excitation_energy_3> 
5.014 
 
>  <excitation_energy_4> 
5.347 
 
>  <homo_energy> 
-6.906 
 
>  <homo_lumo_gap> 
5.396 
 
>  <logP> 
1.373 
 
>  <lumo_energy> 
-1.51 
 
>  <melting_point> 
123.73 
 
>  <molecular_refractivity> 
61.76 
 
>  <oscillator_strength_1> 
0.0005 
 
>  <oscillator_strength_2> 
0.0002 
 
>  <oscillator_strength_3> 
0.0321 
 
>  <oscillator_strength_4> 
0.0041 
 
>  <open_babel_can_smiles> 
CCC[C@@]1(C(=C)C)C(=N[C](=[N]=C1O)=O)O 
 
>  <mulliken_charges> 
29 
1   -0.447533 
2   -0.410524 
3   -0.525809 
4   -0.283897 
5   -0.268657 
6   0.127179 
7   0.543741 
8   0.543912 
9   0.617742 
10   -0.1743 
11   -0.469227 
12   -0.469312 
13   -0.57838 
14   -0.578439 
15   -0.429053 
16   0.162672 
17   0.145651 
18   0.145572 
19   0.164194 
20   0.164259 
21   0.168601 
22   0.190537 
23   0.190383 
24   0.17155 
25   0.171616 
26   0.146515 
27   0.146463 
28   0.41725 
29   0.417295 
 
>  <lowdin_charges> 
29 
1   -0.442775 
2   -0.352119 
3   -0.452025 
4   -0.283995 
5   -0.268826 
6   -0.023075 
7   0.146435 
8   0.146637 
9   0.17691 
10   -0.063954 
11   -0.185076 
12   -0.185126 
13   -0.331522 
14   -0.331747 
15   -0.209405 
16   0.161479 
17   0.149372 
18   0.148066 
19   0.171037 
20   0.167696 
21   0.16693 
22   0.175435 
23   0.176449 
24   0.159014 
25   0.160413 
26   0.148149 
27   0.149525 
28   0.363494 
29   0.362601 
 
$$$$ 
 
