PCCDB-ID:  14214 
public computational chemistry database (PCCDB) project, http://pccdb.org 
 
 17 16  0  0  0  0  0  0  0  0999 V2000 
    3.4825   -1.0246   -0.9913 C   0  0  0  0  0  0  0  0  0  0  0  0 
    1.1086    2.6000    0.2006 C   0  0  0  0  0  0  0  0  0  0  0  0 
    4.5121    0.8820    0.7996 C   0  0  0  0  0  0  0  0  0  0  0  0 
    2.6127    0.1747   -0.6462 C   0  0  0  0  0  0  0  0  0  0  0  0 
    2.5042    2.2899    0.6901 C   0  0  0  0  0  0  0  0  0  0  0  0 
    3.1617    1.1001    0.2582 N   0  0  0  0  0  0  0  0  0  0  0  0 
    1.5034    0.2973   -1.1365 O   0  0  0  0  0  0  0  0  0  0  0  0 
    3.0817    3.0426    1.4555 O   0  0  0  0  0  0  0  0  0  0  0  0 
    4.4685   -0.7312   -1.3653 H   0  0  0  0  0  0  0  0  0  0  0  0 
    2.9575   -1.5937   -1.7590 H   0  0  0  0  0  0  0  0  0  0  0  0 
    3.6394   -1.6671   -0.1173 H   0  0  0  0  0  0  0  0  0  0  0  0 
    0.4066    1.8019    0.4521 H   0  0  0  0  0  0  0  0  0  0  0  0 
    1.0787    2.6993   -0.8871 H   0  0  0  0  0  0  0  0  0  0  0  0 
    0.8129    3.5361    0.6777 H   0  0  0  0  0  0  0  0  0  0  0  0 
    4.5870   -0.0994    1.2746 H   0  0  0  0  0  0  0  0  0  0  0  0 
    4.6917    1.6571    1.5409 H   0  0  0  0  0  0  0  0  0  0  0  0 
    5.2703    0.9598    0.0138 H   0  0  0  0  0  0  0  0  0  0  0  0 
  1  4  1  0  0  0  0 
  1 11  1  0  0  0  0 
  2 12  1  0  0  0  0 
  2 14  1  0  0  0  0 
  2  5  1  0  0  0  0 
  3 15  1  0  0  0  0 
  3 16  1  0  0  0  0 
  4  6  1  0  0  0  0 
  5  8  2  0  0  0  0 
  6  5  1  0  0  0  0 
  6  3  1  0  0  0  0 
  7  4  2  0  0  0  0 
  9  1  1  0  0  0  0 
 10  1  1  0  0  0  0 
 13  2  1  0  0  0  0 
 17  3  1  0  0  0  0 
M  END 
>  <HBA> 
3 
 
>  <HBD> 
0 
 
>  <TPSA> 
37.38 
 
>  <cid> 
14214 
 
>  <dipole> 
2.85 
 
>  <excitation_energy_1> 
4.874 
 
>  <excitation_energy_2> 
5.117 
 
>  <excitation_energy_3> 
6.204 
 
>  <excitation_energy_4> 
6.499 
 
>  <homo_energy> 
-7.102 
 
>  <homo_lumo_gap> 
6.479 
 
>  <logP> 
0.011 
 
>  <lumo_energy> 
-0.623 
 
>  <melting_point> 
19.52 
 
>  <molecular_refractivity> 
29.45 
 
>  <oscillator_strength_1> 
0.0011 
 
>  <oscillator_strength_2> 
0.0002 
 
>  <oscillator_strength_3> 
0.255 
 
>  <oscillator_strength_4> 
0.0183 
 
>  <open_babel_can_smiles> 
CN(C(=O)C)C(=O)C 
 
>  <mulliken_charges> 
17 
1   -0.541865 
2   -0.50118 
3   -0.338533 
4   0.576842 
5   0.576498 
6   -0.471678 
7   -0.471917 
8   -0.470786 
9   0.174408 
10   0.192355 
11   0.178906 
12   0.188104 
13   0.189212 
14   0.170087 
15   0.163269 
16   0.220175 
17   0.166102 
 
>  <lowdin_charges> 
17 
1   -0.470812 
2   -0.462152 
3   -0.362766 
4   0.176023 
5   0.195322 
6   -0.106788 
7   -0.267395 
8   -0.268885 
9   0.170802 
10   0.182255 
11   0.173947 
12   0.182896 
13   0.181074 
14   0.169191 
15   0.156701 
16   0.19363 
17   0.156955 
 
$$$$ 
 
