PCCDB-ID:  11698 
public computational chemistry database (PCCDB) project, http://pccdb.org 
 
 26 26  0  0  0  0  0  0  0  0999 V2000 
    5.8005    1.6874    1.6768 C   0  0  0  0  0  0  0  0  0  0  0  0 
    2.2980    2.1282    4.2393 C   0  0  0  0  0  0  0  0  0  0  0  0 
    3.3961    4.7020    0.7820 C   0  0  0  0  0  0  0  0  0  0  0  0 
    2.1419    3.0667   -0.5473 C   0  0  0  0  0  0  0  0  0  0  0  0 
    3.8423    5.3473   -0.5298 C   0  0  0  0  0  0  0  0  0  0  0  0 
    2.6500    3.7739   -1.8009 C   0  0  0  0  0  0  0  0  0  0  0  0 
    3.1098    3.2805    0.5409 N   0  0  0  0  0  0  0  0  0  0  0  0 
    2.8558    0.7833    1.3654 O   0  0  0  0  0  0  0  0  0  0  0  0 
    4.7210    2.3440    2.3632 O   0  0  0  0  0  0  0  0  0  0  0  0 
    2.3760    2.8187    2.9791 O   0  0  0  0  0  0  0  0  0  0  0  0 
    2.8792    5.1574   -1.5569 O   0  0  0  0  0  0  0  0  0  0  0  0 
    3.2219    2.1623    1.7692 P   0  0  0  0  0  0  0  0  0  0  0  0 
    6.6897    1.8241    2.2953 H   0  0  0  0  0  0  0  0  0  0  0  0 
    5.9611    2.1441    0.6941 H   0  0  0  0  0  0  0  0  0  0  0  0 
    5.5871    0.6219    1.5549 H   0  0  0  0  0  0  0  0  0  0  0  0 
    1.5667    2.6688    4.8430 H   0  0  0  0  0  0  0  0  0  0  0  0 
    3.2721    2.1401    4.7377 H   0  0  0  0  0  0  0  0  0  0  0  0 
    1.9668    1.0959    4.0921 H   0  0  0  0  0  0  0  0  0  0  0  0 
    2.4996    5.2160    1.1608 H   0  0  0  0  0  0  0  0  0  0  0  0 
    4.1852    4.7895    1.5341 H   0  0  0  0  0  0  0  0  0  0  0  0 
    2.0365    1.9930   -0.7183 H   0  0  0  0  0  0  0  0  0  0  0  0 
    1.1569    3.4766   -0.2737 H   0  0  0  0  0  0  0  0  0  0  0  0 
    4.8132    4.9234   -0.8366 H   0  0  0  0  0  0  0  0  0  0  0  0 
    3.9543    6.4289   -0.4068 H   0  0  0  0  0  0  0  0  0  0  0  0 
    1.9063    3.7212   -2.6016 H   0  0  0  0  0  0  0  0  0  0  0  0 
    3.5790    3.2908   -2.1462 H   0  0  0  0  0  0  0  0  0  0  0  0 
  1 13  1  0  0  0  0 
  1  9  1  0  0  0  0 
  2 17  1  0  0  0  0 
  2 16  1  0  0  0  0 
  3 19  1  0  0  0  0 
  3 20  1  0  0  0  0 
  4 22  1  0  0  0  0 
  4  7  1  0  0  0  0 
  5 24  1  0  0  0  0 
  5  3  1  0  0  0  0 
  6 11  1  0  0  0  0 
  6  4  1  0  0  0  0 
  7  3  1  0  0  0  0 
  7 12  1  0  0  0  0 
  8 12  2  0  0  0  0 
 10  2  1  0  0  0  0 
 11  5  1  0  0  0  0 
 12  9  1  0  0  0  0 
 12 10  1  0  0  0  0 
 14  1  1  0  0  0  0 
 15  1  1  0  0  0  0 
 18  2  1  0  0  0  0 
 21  4  1  0  0  0  0 
 23  5  1  0  0  0  0 
 25  6  1  0  0  0  0 
 26  6  1  0  0  0  0 
M  END 
>  <HBA> 
5 
 
>  <HBD> 
0 
 
>  <TPSA> 
57.81 
 
>  <cid> 
11698 
 
>  <dipole> 
2.26 
 
>  <excitation_energy_1> 
6.022 
 
>  <excitation_energy_2> 
6.345 
 
>  <excitation_energy_3> 
6.505 
 
>  <excitation_energy_4> 
6.585 
 
>  <homo_energy> 
-6.493 
 
>  <homo_lumo_gap> 
8.232 
 
>  <logP> 
0.657 
 
>  <lumo_energy> 
1.739 
 
>  <melting_point> 
-12.77 
 
>  <molecular_refractivity> 
47.57 
 
>  <oscillator_strength_1> 
0.004 
 
>  <oscillator_strength_2> 
0.061 
 
>  <oscillator_strength_3> 
0.0385 
 
>  <oscillator_strength_4> 
0.0243 
 
>  <open_babel_can_smiles> 
COP(=O)(N1CCOCC1)OC 
 
>  <mulliken_charges> 
26 
1   -0.219522 
2   -0.217421 
3   -0.149858 
4   -0.152413 
5   -0.03073 
6   -0.034583 
7   -0.525458 
8   -0.574988 
9   -0.543577 
10   -0.524325 
11   -0.466438 
12   1.204908 
13   0.165644 
14   0.157892 
15   0.182945 
16   0.167362 
17   0.167871 
18   0.178873 
19   0.15562 
20   0.166474 
21   0.187201 
22   0.149016 
23   0.125911 
24   0.149298 
25   0.150654 
26   0.129645 
 
>  <lowdin_charges> 
26 
1   -0.270993 
2   -0.269921 
3   -0.209005 
4   -0.204702 
5   -0.13498 
6   -0.138704 
7   -0.333716 
8   -0.598729 
9   -0.40674 
10   -0.396534 
11   -0.273664 
12   1.080446 
13   0.160164 
14   0.150327 
15   0.164368 
16   0.162462 
17   0.156126 
18   0.162546 
19   0.146078 
20   0.167324 
21   0.177019 
22   0.141181 
23   0.129514 
24   0.151985 
25   0.155324 
26   0.132824 
 
$$$$ 
 
