PCCDB-ID:  61781 
public computational chemistry database (PCCDB) project, http://pccdb.org 
 
 32 32  0  0  1  0  0  0  0  0999 V2000 
    2.3727   -1.7416   -3.4510 C   0  0  0  0  0  0  0  0  0  0  0  0 
    3.4597   -0.9668    1.1510 C   0  0  0  0  0  0  0  0  0  0  0  0 
    1.6059    3.5844    0.5040 C   0  0  0  0  0  0  0  0  0  0  0  0 
    4.3250   -2.0781   -1.9338 C   0  0  0  0  0  0  0  0  0  0  0  0 
    3.5156    0.2461   -2.2939 C   0  0  0  0  0  0  0  0  0  0  0  0 
    5.4153   -1.6411   -0.9848 C   0  0  0  0  0  0  0  0  0  0  0  0 
    4.8405    0.7041   -1.6705 C   0  0  0  0  0  0  0  0  0  0  0  0 
    4.3811    1.2918    1.4447 C   0  0  0  0  0  0  0  0  0  0  0  0 
    3.4593   -1.2483   -2.5315 C   0  0  0  0  0  0  0  0  0  0  0  0 
    4.3114   -0.0330    0.7123 C   0  0  0  0  0  0  0  0  0  0  0  0 
    2.3185    2.5017    1.2819 C   0  0  0  0  0  0  0  0  0  0  0  0 
    5.2506   -0.1944   -0.4771 C   0  0  1  0  0  0  0  0  0  0  0  0 
    1.8493    1.8906    2.2168 O   0  0  0  0  0  0  0  0  0  0  0  0 
    3.5725    2.3195    0.7997 O   0  0  0  0  0  0  0  0  0  0  0  0 
    2.3808   -2.8327   -3.5428 H   0  0  0  0  0  0  0  0  0  0  0  0 
    2.4773   -1.3135   -4.4579 H   0  0  0  0  0  0  0  0  0  0  0  0 
    1.3801   -1.4398   -3.0873 H   0  0  0  0  0  0  0  0  0  0  0  0 
    2.8199   -0.7789    2.0087 H   0  0  0  0  0  0  0  0  0  0  0  0 
    3.3504   -1.9290    0.6608 H   0  0  0  0  0  0  0  0  0  0  0  0 
    0.5736    3.6581    0.8476 H   0  0  0  0  0  0  0  0  0  0  0  0 
    1.6318    3.3635   -0.5676 H   0  0  0  0  0  0  0  0  0  0  0  0 
    2.1123    4.5444    0.6523 H   0  0  0  0  0  0  0  0  0  0  0  0 
    4.2618   -3.1474   -2.1383 H   0  0  0  0  0  0  0  0  0  0  0  0 
    3.3526    0.7761   -3.2435 H   0  0  0  0  0  0  0  0  0  0  0  0 
    2.6756    0.5377   -1.6445 H   0  0  0  0  0  0  0  0  0  0  0  0 
    6.3888   -1.7239   -1.4930 H   0  0  0  0  0  0  0  0  0  0  0  0 
    5.4737   -2.3342   -0.1352 H   0  0  0  0  0  0  0  0  0  0  0  0 
    4.7684    1.7519   -1.3626 H   0  0  0  0  0  0  0  0  0  0  0  0 
    5.6351    0.6432   -2.4263 H   0  0  0  0  0  0  0  0  0  0  0  0 
    5.3941    1.7044    1.4296 H   0  0  0  0  0  0  0  0  0  0  0  0 
    4.0412    1.1895    2.4759 H   0  0  0  0  0  0  0  0  0  0  0  0 
    6.2385    0.1515   -0.1357 H   0  0  0  0  0  0  0  0  0  0  0  0 
  1 17  1  0  0  0  0 
  1  9  1  0  0  0  0 
  2 18  1  0  0  0  0 
  3 22  1  0  0  0  0 
  3 20  1  0  0  0  0 
  3 11  1  0  0  0  0 
  4  6  1  0  0  0  0 
  5  7  1  0  0  0  0 
  5 25  1  0  0  0  0 
  6 12  1  0  0  0  0 
  6 27  1  0  0  0  0 
  7 28  1  0  0  0  0 
  7 12  1  0  0  0  0 
  8 31  1  0  0  0  0 
  9  5  1  0  0  0  0 
  9  4  2  0  0  0  0 
 10  2  2  0  0  0  0 
 10  8  1  0  0  0  0 
 11 13  2  0  0  0  0 
 12 32  1  1  0  0  0 
 12 10  1  0  0  0  0 
 14 11  1  0  0  0  0 
 14  8  1  0  0  0  0 
 15  1  1  0  0  0  0 
 16  1  1  0  0  0  0 
 19  2  1  0  0  0  0 
 21  3  1  0  0  0  0 
 23  4  1  0  0  0  0 
 24  5  1  0  0  0  0 
 26  6  1  0  0  0  0 
 29  7  1  0  0  0  0 
 30  8  1  0  0  0  0 
M  END 
>  <HBA> 
2 
 
>  <HBD> 
0 
 
>  <TPSA> 
26.3 
 
>  <cid> 
61781 
 
>  <dipole> 
1.92 
 
>  <excitation_energy_1> 
5.215 
 
>  <excitation_energy_2> 
5.589 
 
>  <excitation_energy_3> 
5.74 
 
>  <excitation_energy_4> 
5.85 
 
>  <homo_energy> 
-6.142 
 
>  <homo_lumo_gap> 
6.286 
 
>  <logP> 
2.852 
 
>  <lumo_energy> 
0.144 
 
>  <melting_point> 
0.5 
 
>  <molecular_refractivity> 
58.02 
 
>  <oscillator_strength_1> 
0.004 
 
>  <oscillator_strength_2> 
0.0025 
 
>  <oscillator_strength_3> 
0.0001 
 
>  <oscillator_strength_4> 
0.0013 
 
>  <open_babel_can_smiles> 
CC(=O)OCC(=C)[C@@H]1CCC(=CC1)C 
 
>  <mulliken_charges> 
32 
1   -0.514476 
2   -0.395312 
3   -0.524999 
4   -0.177197 
5   -0.328273 
6   -0.30886 
7   -0.273634 
8   -0.13092 
9   0.197108 
10   0.20221 
11   0.605818 
12   -0.160653 
13   -0.466182 
14   -0.450829 
15   0.150467 
16   0.148624 
17   0.151741 
18   0.16286 
19   0.149621 
20   0.182269 
21   0.180933 
22   0.182285 
23   0.11054 
24   0.134729 
25   0.149699 
26   0.143167 
27   0.142697 
28   0.14869 
29   0.134603 
30   0.14883 
31   0.181082 
32   0.123362 
 
>  <lowdin_charges> 
32 
1   -0.43613 
2   -0.333014 
3   -0.462634 
4   -0.198719 
5   -0.279563 
6   -0.277501 
7   -0.275169 
8   -0.13094 
9   -0.013191 
10   -0.018255 
11   0.203954 
12   -0.126478 
13   -0.266145 
14   -0.203211 
15   0.152453 
16   0.151671 
17   0.153651 
18   0.169411 
19   0.163666 
20   0.174439 
21   0.174575 
22   0.178158 
23   0.144901 
24   0.147112 
25   0.151238 
26   0.150266 
27   0.15104 
28   0.150095 
29   0.143661 
30   0.150873 
31   0.16684 
32   0.142945 
 
$$$$ 
 
