PCCDB-ID:  8843 
public computational chemistry database (PCCDB) project, http://pccdb.org 
 
 27 26  0  0  0  0  0  0  0  0999 V2000 
    0.3704   -0.5707   -1.6755 C   0  0  0  0  0  0  0  0  0  0  0  0 
    1.9971   -2.0728   -0.4363 C   0  0  0  0  0  0  0  0  0  0  0  0 
    4.8438   -2.9328   -3.5916 C   0  0  0  0  0  0  0  0  0  0  0  0 
    4.2957   -0.4072   -1.8059 C   0  0  0  0  0  0  0  0  0  0  0  0 
    2.8094   -0.2223   -1.9608 C   0  0  0  0  0  0  0  0  0  0  0  0 
    5.0469   -0.4225   -3.1631 C   0  0  0  0  0  0  0  0  0  0  0  0 
    4.1242   -1.2257   -5.3203 C   0  0  0  0  0  0  0  0  0  0  0  0 
    3.6867   -2.1692   -6.3539 C   0  0  0  0  0  0  0  0  0  0  0  0 
    1.8129   -0.9197   -1.3933 C   0  0  0  0  0  0  0  0  0  0  0  0 
    4.6340   -1.5309   -4.1065 C   0  0  0  0  0  0  0  0  0  0  0  0 
    3.2238   -1.8152   -7.4265 O   0  0  0  0  0  0  0  0  0  0  0  0 
   -0.1656   -1.4273   -2.1078 H   0  0  0  0  0  0  0  0  0  0  0  0 
    0.2812    0.2699   -2.3704 H   0  0  0  0  0  0  0  0  0  0  0  0 
   -0.1616   -0.3065   -0.7506 H   0  0  0  0  0  0  0  0  0  0  0  0 
    1.5484   -1.8387    0.5393 H   0  0  0  0  0  0  0  0  0  0  0  0 
    3.0441   -2.3332   -0.2625 H   0  0  0  0  0  0  0  0  0  0  0  0 
    1.4807   -2.9700   -0.8047 H   0  0  0  0  0  0  0  0  0  0  0  0 
    5.8655   -3.0464   -3.2064 H   0  0  0  0  0  0  0  0  0  0  0  0 
    4.6773   -3.7050   -4.3439 H   0  0  0  0  0  0  0  0  0  0  0  0 
    4.1667   -3.1344   -2.7520 H   0  0  0  0  0  0  0  0  0  0  0  0 
    4.5305   -1.3146   -1.2404 H   0  0  0  0  0  0  0  0  0  0  0  0 
    4.7119    0.4274   -1.2216 H   0  0  0  0  0  0  0  0  0  0  0  0 
    2.5278    0.5966   -2.6257 H   0  0  0  0  0  0  0  0  0  0  0  0 
    6.1227   -0.5214   -2.9532 H   0  0  0  0  0  0  0  0  0  0  0  0 
    4.9105    0.5459   -3.6587 H   0  0  0  0  0  0  0  0  0  0  0  0 
    4.0054   -0.1812   -5.6030 H   0  0  0  0  0  0  0  0  0  0  0  0 
    3.7918   -3.2509   -6.1280 H   0  0  0  0  0  0  0  0  0  0  0  0 
  1  9  1  0  0  0  0 
  1 14  1  0  0  0  0 
  2 16  1  0  0  0  0 
  2 15  1  0  0  0  0 
  3 18  1  0  0  0  0 
  3 20  1  0  0  0  0 
  4 21  1  0  0  0  0 
  4 22  1  0  0  0  0 
  5  4  1  0  0  0  0 
  5  9  2  0  0  0  0 
  6 24  1  0  0  0  0 
  6  4  1  0  0  0  0 
  7 10  2  0  0  0  0 
  8 27  1  0  0  0  0 
  8  7  1  0  0  0  0 
  9  2  1  0  0  0  0 
 10  3  1  0  0  0  0 
 10  6  1  0  0  0  0 
 11  8  2  0  0  0  0 
 12  1  1  0  0  0  0 
 13  1  1  0  0  0  0 
 17  2  1  0  0  0  0 
 19  3  1  0  0  0  0 
 23  5  1  0  0  0  0 
 25  6  1  0  0  0  0 
 26  7  1  0  0  0  0 
M  END 
>  <HBA> 
1 
 
>  <HBD> 
0 
 
>  <TPSA> 
17.07 
 
>  <cid> 
8843 
 
>  <dipole> 
4.42 
 
>  <excitation_energy_1> 
3.608 
 
>  <excitation_energy_2> 
4.274 
 
>  <excitation_energy_3> 
5.529 
 
>  <excitation_energy_4> 
5.714 
 
>  <homo_energy> 
-6.414 
 
>  <homo_lumo_gap> 
5.056 
 
>  <logP> 
2.878 
 
>  <lumo_energy> 
-1.358 
 
>  <melting_point> 
28.93 
 
>  <molecular_refractivity> 
49.44 
 
>  <oscillator_strength_1> 
0.0004 
 
>  <oscillator_strength_2> 
0.0016 
 
>  <oscillator_strength_3> 
0.4929 
 
>  <oscillator_strength_4> 
0.011 
 
>  <open_babel_can_smiles> 
O=C/C=C(/CCC=C(C)C)\C 
 
>  <mulliken_charges> 
27 
1   -0.505715 
2   -0.515132 
3   -0.531732 
4   -0.310391 
5   -0.149999 
6   -0.34197 
7   -0.234976 
8   0.232974 
9   0.18224 
10   0.225401 
11   -0.422436 
12   0.152541 
13   0.155145 
14   0.150348 
15   0.156709 
16   0.150272 
17   0.153747 
18   0.16221 
19   0.167933 
20   0.177803 
21   0.141936 
22   0.152384 
23   0.114405 
24   0.148523 
25   0.152035 
26   0.139336 
27   0.096409 
 
>  <lowdin_charges> 
27 
1   -0.440433 
2   -0.445518 
3   -0.449008 
4   -0.275247 
5   -0.195111 
6   -0.271717 
7   -0.224318 
8   0.039142 
9   -0.006336 
10   0.049179 
11   -0.239267 
12   0.155406 
13   0.156974 
14   0.153601 
15   0.157857 
16   0.151596 
17   0.156245 
18   0.161696 
19   0.163045 
20   0.170616 
21   0.147068 
22   0.15602 
23   0.148013 
24   0.152718 
25   0.152382 
26   0.162964 
27   0.112434 
 
$$$$ 
 
