PCCDB-ID:  9225 
public computational chemistry database (PCCDB) project, http://pccdb.org 
 
 14 15  0  0  0  0  0  0  0  0999 V2000 
    2.1489    0.7266    0.0018 C   0  0  0  0  0  0  0  0  0  0  0  0 
    2.1858   -0.6831    0.0019 C   0  0  0  0  0  0  0  0  0  0  0  0 
    0.9386    1.4022    0.0013 C   0  0  0  0  0  0  0  0  0  0  0  0 
    1.0182   -1.4356    0.0013 C   0  0  0  0  0  0  0  0  0  0  0  0 
   -1.6291    1.0977   -0.0000 C   0  0  0  0  0  0  0  0  0  0  0  0 
   -0.2570    0.6603    0.0015 C   0  0  0  0  0  0  0  0  0  0  0  0 
   -0.2058   -0.7533    0.0013 C   0  0  0  0  0  0  0  0  0  0  0  0 
   -2.5570    0.1796   -0.0012 N   0  0  0  0  0  0  0  0  0  0  0  0 
   -1.8434   -1.3660   -0.0006 S   0  0  0  0  0  0  0  0  0  0  0  0 
    3.0805    1.2848    0.0018 H   0  0  0  0  0  0  0  0  0  0  0  0 
    3.1465   -1.1907    0.0023 H   0  0  0  0  0  0  0  0  0  0  0  0 
    0.9072    2.4885    0.0000 H   0  0  0  0  0  0  0  0  0  0  0  0 
    1.0570   -2.5208    0.0000 H   0  0  0  0  0  0  0  0  0  0  0  0 
   -1.9376    2.1411    0.0002 H   0  0  0  0  0  0  0  0  0  0  0  0 
  1  2  2  0  0  0  0 
  2 11  1  0  0  0  0 
  3  6  2  0  0  0  0 
  3  1  1  0  0  0  0 
  4  2  1  0  0  0  0 
  5 14  1  0  0  0  0 
  5  6  1  0  0  0  0 
  7  4  2  0  0  0  0 
  7  6  1  0  0  0  0 
  8  9  1  0  0  0  0 
  8  5  2  0  0  0  0 
  9  7  1  0  0  0  0 
 10  1  1  0  0  0  0 
 12  3  1  0  0  0  0 
 13  4  1  0  0  0  0 
M  END 
>  <HBA> 
2 
 
>  <HBD> 
0 
 
>  <TPSA> 
41.13 
 
>  <cid> 
9225 
 
>  <dipole> 
2.95 
 
>  <excitation_energy_1> 
4.431 
 
>  <excitation_energy_2> 
4.988 
 
>  <excitation_energy_3> 
5.057 
 
>  <excitation_energy_4> 
5.417 
 
>  <homo_energy> 
-6.335 
 
>  <homo_lumo_gap> 
5.061 
 
>  <logP> 
2.296 
 
>  <lumo_energy> 
-1.274 
 
>  <melting_point> 
62.38 
 
>  <molecular_refractivity> 
39.62 
 
>  <oscillator_strength_1> 
0.068 
 
>  <oscillator_strength_2> 
0.0036 
 
>  <oscillator_strength_3> 
0.0 
 
>  <oscillator_strength_4> 
0.0025 
 
>  <open_babel_can_smiles> 
c1ccc2c(c1)snc2 
 
>  <mulliken_charges> 
14 
1   -0.143788 
2   -0.115874 
3   -0.169418 
4   -0.160593 
5   -0.003549 
6   0.140164 
7   -0.161963 
8   -0.472119 
9   0.357689 
10   0.138503 
11   0.140199 
12   0.142003 
13   0.147769 
14   0.160979 
 
>  <lowdin_charges> 
14 
1   -0.16103 
2   -0.144066 
3   -0.141805 
4   -0.157259 
5   -0.11097 
6   -0.045085 
7   -0.144782 
8   -0.299476 
9   0.381342 
10   0.162993 
11   0.163663 
12   0.162971 
13   0.165312 
14   0.168193 
 
$$$$ 
 
