PCCDB-ID:  15074 
public computational chemistry database (PCCDB) project, http://pccdb.org 
 
 15 15  0  0  0  0  0  0  0  0999 V2000 
   -0.6761    1.1494    0.1104 C   0  0  0  0  0  0  0  0  0  0  0  0 
    1.3913   -0.0421   -0.1057 C   0  0  0  0  0  0  0  0  0  0  0  0 
   -1.3194   -0.0859    0.1522 C   0  0  0  0  0  0  0  0  0  0  0  0 
    0.6504   -1.2236   -0.0450 C   0  0  0  0  0  0  0  0  0  0  0  0 
    0.7136    1.1798   -0.0347 C   0  0  0  0  0  0  0  0  0  0  0  0 
    1.3905    2.5253   -0.0827 C   0  0  0  0  0  0  0  0  0  0  0  0 
    2.6621    2.5431   -0.5995 N   0  0  0  0  0  0  0  0  0  0  0  0 
   -0.6815   -1.2622    0.0739 N   0  0  0  0  0  0  0  0  0  0  0  0 
    0.8418    3.5343    0.3380 O   0  0  0  0  0  0  0  0  0  0  0  0 
   -1.2258    2.0809    0.1892 H   0  0  0  0  0  0  0  0  0  0  0  0 
    2.4743   -0.0900   -0.1720 H   0  0  0  0  0  0  0  0  0  0  0  0 
   -2.4020   -0.1367    0.2539 H   0  0  0  0  0  0  0  0  0  0  0  0 
    1.1552   -2.1871   -0.0922 H   0  0  0  0  0  0  0  0  0  0  0  0 
    2.9793    1.8086   -1.2154 H   0  0  0  0  0  0  0  0  0  0  0  0 
    3.0647    3.4603   -0.7407 H   0  0  0  0  0  0  0  0  0  0  0  0 
  1  3  1  0  0  0  0 
  1 10  1  0  0  0  0 
  2  4  2  0  0  0  0 
  2  5  1  0  0  0  0 
  3 12  1  0  0  0  0 
  4  8  1  0  0  0  0 
  5  1  2  0  0  0  0 
  6  5  1  0  0  0  0 
  6  9  2  0  0  0  0 
  7  6  1  0  0  0  0 
  8  3  2  0  0  0  0 
 11  2  1  0  0  0  0 
 13  4  1  0  0  0  0 
 14  7  1  0  0  0  0 
 15  7  1  0  0  0  0 
M  END 
>  <HBA> 
3 
 
>  <HBD> 
1 
 
>  <TPSA> 
55.98 
 
>  <cid> 
15074 
 
>  <dipole> 
3.42 
 
>  <excitation_energy_1> 
4.242 
 
>  <excitation_energy_2> 
4.494 
 
>  <excitation_energy_3> 
4.994 
 
>  <excitation_energy_4> 
5.141 
 
>  <homo_energy> 
-7.018 
 
>  <homo_lumo_gap> 
5.459 
 
>  <logP> 
0.881 
 
>  <lumo_energy> 
-1.559 
 
>  <melting_point> 
108.63 
 
>  <molecular_refractivity> 
32.33 
 
>  <oscillator_strength_1> 
0.0025 
 
>  <oscillator_strength_2> 
0.0021 
 
>  <oscillator_strength_3> 
0.0416 
 
>  <oscillator_strength_4> 
0.0001 
 
>  <open_babel_can_smiles> 
NC(=O)c1ccncc1 
 
>  <mulliken_charges> 
15 
1   -0.164981 
2   -0.191865 
3   0.035925 
4   0.038835 
5   0.096443 
6   0.539268 
7   -0.751535 
8   -0.399672 
9   -0.491715 
10   0.171623 
11   0.138483 
12   0.149665 
13   0.146652 
14   0.336844 
15   0.34603 
 
>  <lowdin_charges> 
15 
1   -0.151283 
2   -0.177231 
3   -0.08308 
4   -0.088117 
5   -0.019131 
6   0.168535 
7   -0.466114 
8   -0.13947 
9   -0.290335 
10   0.183535 
11   0.16155 
12   0.158836 
13   0.159723 
14   0.288528 
15   0.294056 
 
$$$$ 
 
