PCCDB-ID:  15977 
public computational chemistry database (PCCDB) project, http://pccdb.org 
 
 22 22  0  0  1  0  0  0  0  0999 V2000 
    0.9421   -0.0976   -0.2707 C   0  0  0  0  0  0  0  0  0  0  0  0 
    5.6413    0.1187   -1.2842 C   0  0  0  0  0  0  0  0  0  0  0  0 
    3.0297    1.4353   -0.1823 C   0  0  0  0  0  0  0  0  0  0  0  0 
    4.4067    1.5033    0.4939 C   0  0  0  0  0  0  0  0  0  0  0  0 
    3.1759   -0.9656    0.3707 C   0  0  0  0  0  0  0  0  0  0  0  0 
    6.4795    0.2717    1.0831 C   0  0  0  0  0  0  0  0  0  0  0  0 
    2.4144    0.0676   -0.0110 C   0  0  0  0  0  0  0  0  0  0  0  0 
    5.2402    0.2382    0.1886 C   0  0  2  0  0  0  0  0  0  0  0  0 
    7.4696    0.9195    0.8313 O   0  0  0  0  0  0  0  0  0  0  0  0 
    4.5267   -0.9419    0.6058 O   0  0  0  0  0  0  0  0  0  0  0  0 
    0.3437    0.5560    0.3796 H   0  0  0  0  0  0  0  0  0  0  0  0 
    0.6130   -1.1290   -0.1035 H   0  0  0  0  0  0  0  0  0  0  0  0 
    0.6844    0.1693   -1.3058 H   0  0  0  0  0  0  0  0  0  0  0  0 
    6.2985    0.9493   -1.5566 H   0  0  0  0  0  0  0  0  0  0  0  0 
    4.7606    0.1260   -1.9319 H   0  0  0  0  0  0  0  0  0  0  0  0 
    6.1810   -0.8187   -1.4493 H   0  0  0  0  0  0  0  0  0  0  0  0 
    3.1068    1.6953   -1.2490 H   0  0  0  0  0  0  0  0  0  0  0  0 
    2.3738    2.1985    0.2595 H   0  0  0  0  0  0  0  0  0  0  0  0 
    4.2698    1.5731    1.5808 H   0  0  0  0  0  0  0  0  0  0  0  0 
    4.9735    2.3853    0.1792 H   0  0  0  0  0  0  0  0  0  0  0  0 
    2.7817   -1.9631    0.5426 H   0  0  0  0  0  0  0  0  0  0  0  0 
    6.3837   -0.3275    2.0145 H   0  0  0  0  0  0  0  0  0  0  0  0 
  1 12  1  0  0  0  0 
  1  7  1  0  0  0  0 
  1 11  1  0  0  0  0 
  2  8  1  0  0  0  0 
  3  7  1  0  0  0  0 
  3 18  1  0  0  0  0 
  3  4  1  0  0  0  0 
  4 19  1  0  0  0  0 
  5 21  1  0  0  0  0 
  5 10  1  0  0  0  0 
  6 22  1  0  0  0  0 
  7  5  2  0  0  0  0 
  8  4  1  0  0  0  0 
  8 10  1  0  0  0  0 
  8  6  1  1  0  0  0 
  9  6  2  0  0  0  0 
 13  1  1  0  0  0  0 
 14  2  1  0  0  0  0 
 15  2  1  0  0  0  0 
 16  2  1  0  0  0  0 
 17  3  1  0  0  0  0 
 20  4  1  0  0  0  0 
M  END 
>  <HBA> 
2 
 
>  <HBD> 
0 
 
>  <TPSA> 
26.3 
 
>  <cid> 
15977 
 
>  <dipole> 
2.55 
 
>  <excitation_energy_1> 
4.012 
 
>  <excitation_energy_2> 
4.191 
 
>  <excitation_energy_3> 
5.292 
 
>  <excitation_energy_4> 
5.815 
 
>  <homo_energy> 
-5.821 
 
>  <homo_lumo_gap> 
4.991 
 
>  <logP> 
1.658 
 
>  <lumo_energy> 
-0.83 
 
>  <melting_point> 
41.69 
 
>  <molecular_refractivity> 
39.3 
 
>  <oscillator_strength_1> 
0.0006 
 
>  <oscillator_strength_2> 
0.0002 
 
>  <oscillator_strength_3> 
0.0018 
 
>  <oscillator_strength_4> 
0.0329 
 
>  <open_babel_can_smiles> 
C[C@]1(CCC(=CO1)C)C=O 
 
>  <mulliken_charges> 
22 
1   -0.513862 
2   -0.458229 
3   -0.331128 
4   -0.29694 
5   0.058958 
6   0.230961 
7   0.132945 
8   0.252199 
9   -0.387933 
10   -0.505818 
11   0.150176 
12   0.152685 
13   0.151022 
14   0.169415 
15   0.15955 
16   0.161857 
17   0.149997 
18   0.148599 
19   0.152291 
20   0.159959 
21   0.135662 
22   0.127633 
 
>  <lowdin_charges> 
22 
1   -0.431492 
2   -0.448704 
3   -0.272586 
4   -0.27934 
5   -0.07174 
6   0.053616 
7   -0.077447 
8   0.0927 
9   -0.208966 
10   -0.213538 
11   0.153002 
12   0.155163 
13   0.151137 
14   0.168497 
15   0.161271 
16   0.16279 
17   0.147198 
18   0.155776 
19   0.151862 
20   0.162854 
21   0.157807 
22   0.130138 
 
$$$$ 
 
