PCCDB-ID:  55834 
public computational chemistry database (PCCDB) project, http://pccdb.org 
 
 31 32  0  0  1  0  0  0  0  0999 V2000 
    0.8183    0.6742   -0.4407 C   0  0  0  0  0  0  0  0  0  0  0  0 
    2.4950   -0.8962   -1.4169 C   0  0  0  0  0  0  0  0  0  0  0  0 
    5.5037    1.6905    2.9959 C   0  0  0  0  0  0  0  0  0  0  0  0 
    4.4399   -0.2910    0.8178 C   0  0  0  0  0  0  0  0  0  0  0  0 
    2.6910    1.3043    1.8662 C   0  0  0  0  0  0  0  0  0  0  0  0 
    4.7414    0.0588    4.7527 C   0  0  0  0  0  0  0  0  0  0  0  0 
    2.1890    0.0521   -0.2771 C   0  0  0  0  0  0  0  0  0  0  0  0 
    3.0385    0.3335    0.7339 C   0  0  0  0  0  0  0  0  0  0  0  0 
    4.9521   -0.6407    2.2258 C   0  0  0  0  0  0  0  0  0  0  0  0 
    3.1356    0.6661    3.1689 C   0  0  1  0  0  0  0  0  0  0  0  0 
    3.6743    0.9780    5.3630 C   0  0  0  0  0  0  0  0  0  0  0  0 
    4.6578    0.4242    3.2680 C   0  0  2  0  0  0  0  0  0  0  0  0 
    5.5259   -1.6843    2.4633 O   0  0  0  0  0  0  0  0  0  0  0  0 
    3.5516    1.3332    6.5031 O   0  0  0  0  0  0  0  0  0  0  0  0 
    2.8156    1.3963    4.3684 O   0  0  0  0  0  0  0  0  0  0  0  0 
    0.0441   -0.1052   -0.4509 H   0  0  0  0  0  0  0  0  0  0  0  0 
    0.7520    1.1851   -1.4111 H   0  0  0  0  0  0  0  0  0  0  0  0 
    0.5510    1.4007    0.3271 H   0  0  0  0  0  0  0  0  0  0  0  0 
    1.6946   -1.6422   -1.5118 H   0  0  0  0  0  0  0  0  0  0  0  0 
    3.4396   -1.4327   -1.3248 H   0  0  0  0  0  0  0  0  0  0  0  0 
    2.5192   -0.3485   -2.3693 H   0  0  0  0  0  0  0  0  0  0  0  0 
    6.5589    1.4694    3.1883 H   0  0  0  0  0  0  0  0  0  0  0  0 
    5.2025    2.5070    3.6606 H   0  0  0  0  0  0  0  0  0  0  0  0 
    5.4197    2.0520    1.9681 H   0  0  0  0  0  0  0  0  0  0  0  0 
    5.1745    0.4138    0.3928 H   0  0  0  0  0  0  0  0  0  0  0  0 
    4.5261   -1.2061    0.2327 H   0  0  0  0  0  0  0  0  0  0  0  0 
    1.6192    1.4994    1.9138 H   0  0  0  0  0  0  0  0  0  0  0  0 
    3.1855    2.2759    1.7313 H   0  0  0  0  0  0  0  0  0  0  0  0 
    4.4670   -0.9897    4.9248 H   0  0  0  0  0  0  0  0  0  0  0  0 
    5.7092    0.2323    5.2274 H   0  0  0  0  0  0  0  0  0  0  0  0 
    2.6292   -0.3096    3.2462 H   0  0  0  0  0  0  0  0  0  0  0  0 
  1  7  1  0  0  0  0 
  1 18  1  0  0  0  0 
  2 20  1  0  0  0  0 
  2  7  1  0  0  0  0 
  3 22  1  0  0  0  0 
  3 23  1  0  0  0  0 
  4  9  1  0  0  0  0 
  5 27  1  0  0  0  0 
  5 10  1  0  0  0  0 
  6 29  1  0  0  0  0 
  6 30  1  0  0  0  0 
  6 11  1  0  0  0  0 
  7  8  2  0  0  0  0 
  8  4  1  0  0  0  0 
  8  5  1  0  0  0  0 
  9 13  2  0  0  0  0 
  9 12  1  0  0  0  0 
 10 31  1  1  0  0  0 
 10 12  1  0  0  0  0 
 10 15  1  0  0  0  0 
 11 14  2  0  0  0  0 
 12  3  1  6  0  0  0 
 12  6  1  0  0  0  0 
 15 11  1  0  0  0  0 
 16  1  1  0  0  0  0 
 17  1  1  0  0  0  0 
 19  2  1  0  0  0  0 
 21  2  1  0  0  0  0 
 24  3  1  0  0  0  0 
 25  4  1  0  0  0  0 
 26  4  1  0  0  0  0 
 28  5  1  0  0  0  0 
M  END 
>  <HBA> 
3 
 
>  <HBD> 
0 
 
>  <TPSA> 
43.37 
 
>  <cid> 
55834 
 
>  <dipole> 
4.88 
 
>  <excitation_energy_1> 
4.171 
 
>  <excitation_energy_2> 
5.013 
 
>  <excitation_energy_3> 
5.529 
 
>  <excitation_energy_4> 
5.691 
 
>  <homo_energy> 
-6.471 
 
>  <homo_lumo_gap> 
5.646 
 
>  <logP> 
2.007 
 
>  <lumo_energy> 
-0.825 
 
>  <melting_point> 
83.76 
 
>  <molecular_refractivity> 
56.32 
 
>  <oscillator_strength_1> 
0.0013 
 
>  <oscillator_strength_2> 
0.0055 
 
>  <oscillator_strength_3> 
0.0053 
 
>  <oscillator_strength_4> 
0.0153 
 
>  <open_babel_can_smiles> 
CC(=C1C[C@@H]2OC(=O)C[C@]2(C(=O)C1)C)C 
 
>  <mulliken_charges> 
31 
1   -0.510847 
2   -0.510832 
3   -0.482108 
4   -0.437369 
5   -0.359741 
6   -0.391522 
7   0.098482 
8   0.10962 
9   0.439797 
10   0.138794 
11   0.615551 
12   -0.020293 
13   -0.4412 
14   -0.451464 
15   -0.478239 
16   0.159454 
17   0.158698 
18   0.15861 
19   0.158861 
20   0.159275 
21   0.159401 
22   0.169616 
23   0.176862 
24   0.159171 
25   0.178021 
26   0.182692 
27   0.168622 
28   0.161195 
29   0.195188 
30   0.185909 
31   0.149797 
 
>  <lowdin_charges> 
31 
1   -0.445707 
2   -0.445119 
3   -0.444081 
4   -0.310704 
5   -0.280532 
6   -0.305699 
7   -0.010487 
8   -0.043832 
9   0.156144 
10   -0.001185 
11   0.195743 
12   -0.037598 
13   -0.222767 
14   -0.221728 
15   -0.197461 
16   0.159739 
17   0.158896 
18   0.158292 
19   0.159756 
20   0.157936 
21   0.159351 
22   0.163279 
23   0.167512 
24   0.154809 
25   0.173943 
26   0.174908 
27   0.165644 
28   0.157224 
29   0.182255 
30   0.178121 
31   0.143346 
 
$$$$ 
 
