PCCDB-ID:  46293 
public computational chemistry database (PCCDB) project, http://pccdb.org 
 
 44 44  0  0  0  0  0  0  0  0999 V2000 
    2.4261   -3.5914   -2.0869 C   0  0  0  0  0  0  0  0  0  0  0  0 
   10.1149    7.0344   -8.4392 C   0  0  0  0  0  0  0  0  0  0  0  0 
    7.7102    7.7268   -8.0105 C   0  0  0  0  0  0  0  0  0  0  0  0 
    3.7578   -2.8974   -1.7836 C   0  0  0  0  0  0  0  0  0  0  0  0 
    4.0240   -1.6813   -2.6803 C   0  0  0  0  0  0  0  0  0  0  0  0 
    5.3566   -0.9806   -2.3865 C   0  0  0  0  0  0  0  0  0  0  0  0 
    5.6176    0.2281   -3.2940 C   0  0  0  0  0  0  0  0  0  0  0  0 
    8.2668    3.8128   -5.9897 C   0  0  0  0  0  0  0  0  0  0  0  0 
    9.0049    5.1952   -4.1703 C   0  0  0  0  0  0  0  0  0  0  0  0 
    8.4233    4.8842   -6.8653 C   0  0  0  0  0  0  0  0  0  0  0  0 
    9.1655    6.2662   -5.0521 C   0  0  0  0  0  0  0  0  0  0  0  0 
    6.9422    0.9347   -3.0010 C   0  0  0  0  0  0  0  0  0  0  0  0 
    8.4010    2.7809   -3.6757 C   0  0  0  0  0  0  0  0  0  0  0  0 
    9.0461    7.3121   -7.3653 C   0  0  0  0  0  0  0  0  0  0  0  0 
    8.5569    3.9521   -4.6247 C   0  0  0  0  0  0  0  0  0  0  0  0 
    8.8771    6.1342   -6.4146 C   0  0  0  0  0  0  0  0  0  0  0  0 
    7.1569    2.0515   -3.9184 N   0  0  0  0  0  0  0  0  0  0  0  0 
    2.2642   -4.4528   -1.4289 H   0  0  0  0  0  0  0  0  0  0  0  0 
    2.3944   -3.9523   -3.1223 H   0  0  0  0  0  0  0  0  0  0  0  0 
    1.5811   -2.9051   -1.9510 H   0  0  0  0  0  0  0  0  0  0  0  0 
   10.2594    7.9138   -9.0784 H   0  0  0  0  0  0  0  0  0  0  0  0 
    9.8216    6.1983   -9.0852 H   0  0  0  0  0  0  0  0  0  0  0  0 
   11.0781    6.7808   -7.9832 H   0  0  0  0  0  0  0  0  0  0  0  0 
    7.8446    8.6110   -8.6453 H   0  0  0  0  0  0  0  0  0  0  0  0 
    6.9593    7.9640   -7.2489 H   0  0  0  0  0  0  0  0  0  0  0  0 
    7.3052    6.9248   -8.6393 H   0  0  0  0  0  0  0  0  0  0  0  0 
    4.5804   -3.6178   -1.8973 H   0  0  0  0  0  0  0  0  0  0  0  0 
    3.7749   -2.5815   -0.7306 H   0  0  0  0  0  0  0  0  0  0  0  0 
    3.2009   -0.9601   -2.5656 H   0  0  0  0  0  0  0  0  0  0  0  0 
    4.0050   -1.9969   -3.7340 H   0  0  0  0  0  0  0  0  0  0  0  0 
    6.1782   -1.7036   -2.4980 H   0  0  0  0  0  0  0  0  0  0  0  0 
    5.3735   -0.6609   -1.3340 H   0  0  0  0  0  0  0  0  0  0  0  0 
    4.7925    0.9486   -3.1830 H   0  0  0  0  0  0  0  0  0  0  0  0 
    5.6149   -0.0829   -4.3468 H   0  0  0  0  0  0  0  0  0  0  0  0 
    7.9035    2.8559   -6.3531 H   0  0  0  0  0  0  0  0  0  0  0  0 
    9.2285    5.3319   -3.1141 H   0  0  0  0  0  0  0  0  0  0  0  0 
    8.1884    4.7430   -7.9179 H   0  0  0  0  0  0  0  0  0  0  0  0 
    9.5165    7.2234   -4.6714 H   0  0  0  0  0  0  0  0  0  0  0  0 
    7.7735    0.2282   -3.1361 H   0  0  0  0  0  0  0  0  0  0  0  0 
    6.9721    1.2437   -1.9364 H   0  0  0  0  0  0  0  0  0  0  0  0 
    8.4961    3.1428   -2.6333 H   0  0  0  0  0  0  0  0  0  0  0  0 
    9.2263    2.0680   -3.8234 H   0  0  0  0  0  0  0  0  0  0  0  0 
    9.3973    8.1624   -6.7644 H   0  0  0  0  0  0  0  0  0  0  0  0 
    6.3768    2.7042   -3.8435 H   0  0  0  0  0  0  0  0  0  0  0  0 
  1 20  1  0  0  0  0 
  1  4  1  0  0  0  0 
  1 18  1  0  0  0  0 
  2 23  1  0  0  0  0 
  2 14  1  0  0  0  0 
  3 14  1  0  0  0  0 
  3 25  1  0  0  0  0 
  4 28  1  0  0  0  0 
  5 29  1  0  0  0  0 
  5  6  1  0  0  0  0 
  5  4  1  0  0  0  0 
  6 32  1  0  0  0  0 
  7 33  1  0  0  0  0 
  7 12  1  0  0  0  0 
  7  6  1  0  0  0  0 
  8 15  2  0  0  0  0 
  9 36  1  0  0  0  0 
 10 16  2  0  0  0  0 
 10  8  1  0  0  0  0 
 11 38  1  0  0  0  0 
 11  9  2  0  0  0  0 
 12 40  1  0  0  0  0 
 13 41  1  0  0  0  0 
 14 43  1  0  0  0  0 
 14 16  1  0  0  0  0 
 15  9  1  0  0  0  0 
 15 13  1  0  0  0  0 
 16 11  1  0  0  0  0 
 17 44  1  0  0  0  0 
 17 13  1  0  0  0  0 
 17 12  1  0  0  0  0 
 19  1  1  0  0  0  0 
 21  2  1  0  0  0  0 
 22  2  1  0  0  0  0 
 24  3  1  0  0  0  0 
 26  3  1  0  0  0  0 
 27  4  1  0  0  0  0 
 30  5  1  0  0  0  0 
 31  6  1  0  0  0  0 
 34  7  1  0  0  0  0 
 35  8  1  0  0  0  0 
 37 10  1  0  0  0  0 
 39 12  1  0  0  0  0 
 42 13  1  0  0  0  0 
M  END 
>  <HBA> 
1 
 
>  <HBD> 
1 
 
>  <TPSA> 
12.03 
 
>  <cid> 
46293 
 
>  <dipole> 
0.79 
 
>  <excitation_energy_1> 
5.107 
 
>  <excitation_energy_2> 
5.138 
 
>  <excitation_energy_3> 
5.333 
 
>  <excitation_energy_4> 
5.576 
 
>  <homo_energy> 
-5.899 
 
>  <homo_lumo_gap> 
6.082 
 
>  <logP> 
4.871 
 
>  <lumo_energy> 
0.182 
 
>  <melting_point> 
33.86 
 
>  <molecular_refractivity> 
77.63 
 
>  <oscillator_strength_1> 
0.0048 
 
>  <oscillator_strength_2> 
0.0024 
 
>  <oscillator_strength_3> 
0.0108 
 
>  <oscillator_strength_4> 
0.0065 
 
>  <open_babel_can_smiles> 
CCCCCCNCc1ccc(cc1)C(C)C 
 
>  <mulliken_charges> 
44 
1   -0.441414 
2   -0.438039 
3   -0.438257 
4   -0.247055 
5   -0.244936 
6   -0.256183 
7   -0.264974 
8   -0.166153 
9   -0.184206 
10   -0.189453 
11   -0.19959 
12   -0.105651 
13   -0.181665 
14   -0.159242 
15   0.128728 
16   0.190092 
17   -0.560602 
18   0.141525 
19   0.141602 
20   0.14108 
21   0.139586 
22   0.143382 
23   0.148958 
24   0.139647 
25   0.148331 
26   0.143357 
27   0.130233 
28   0.129641 
29   0.126485 
30   0.128382 
31   0.129108 
32   0.12785 
33   0.123676 
34   0.14505 
35   0.141807 
36   0.118899 
37   0.122047 
38   0.119273 
39   0.135752 
40   0.106848 
41   0.115078 
42   0.151502 
43   0.126764 
44   0.292736 
 
>  <lowdin_charges> 
44 
1   -0.444262 
2   -0.442616 
3   -0.444036 
4   -0.271426 
5   -0.272989 
6   -0.273243 
7   -0.277295 
8   -0.157229 
9   -0.166404 
10   -0.163879 
11   -0.171429 
12   -0.198831 
13   -0.19606 
14   -0.118792 
15   -0.019683 
16   -0.002936 
17   -0.362379 
18   0.149603 
19   0.145333 
20   0.146587 
21   0.147901 
22   0.148208 
23   0.152284 
24   0.147839 
25   0.152939 
26   0.148443 
27   0.139351 
28   0.137029 
29   0.137809 
30   0.136826 
31   0.139147 
32   0.136347 
33   0.136428 
34   0.146012 
35   0.164852 
36   0.150909 
37   0.151246 
38   0.152158 
39   0.140053 
40   0.112135 
41   0.119577 
42   0.149726 
43   0.141769 
44   0.252981 
 
$$$$ 
 
