PCCDB-ID:  62347 
public computational chemistry database (PCCDB) project, http://pccdb.org 
 
 16 17  0  0  1  0  0  0  0  0999 V2000 
    0.0045    0.7401   -0.5639 C   0  0  2  0  0  0  0  0  0  0  0  0 
    0.0118   -0.8547   -0.5976 C   0  0  1  0  0  0  0  0  0  0  0  0 
    1.8293    0.0349    0.4307 C   0  0  0  0  0  0  0  0  0  0  0  0 
   -1.7573    0.0288    0.5302 C   0  0  0  0  0  0  0  0  0  0  0  0 
    1.2079    1.1231    0.1792 N   0  0  0  0  0  0  0  0  0  0  0  0 
   -1.2367    1.1186    0.1145 N   0  0  0  0  0  0  0  0  0  0  0  0 
    1.3465   -1.1574   -0.0970 N   0  0  0  0  0  0  0  0  0  0  0  0 
   -1.0867   -1.1737    0.3151 N   0  0  0  0  0  0  0  0  0  0  0  0 
    2.9687   -0.0615    1.1366 O   0  0  0  0  0  0  0  0  0  0  0  0 
   -2.9229   -0.0723    1.1910 O   0  0  0  0  0  0  0  0  0  0  0  0 
    0.0323    1.1899   -1.5623 H   0  0  0  0  0  0  0  0  0  0  0  0 
   -0.1439   -1.3057   -1.5820 H   0  0  0  0  0  0  0  0  0  0  0  0 
    1.4753   -1.9932    0.4626 H   0  0  0  0  0  0  0  0  0  0  0  0 
   -1.6665   -1.9816    0.1177 H   0  0  0  0  0  0  0  0  0  0  0  0 
    3.1782    0.8439    1.4261 H   0  0  0  0  0  0  0  0  0  0  0  0 
   -3.2609    0.8369    1.2734 H   0  0  0  0  0  0  0  0  0  0  0  0 
  1 11  1  6  0  0  0 
  1  6  1  0  0  0  0 
  1  5  1  0  0  0  0 
  2 12  1  6  0  0  0 
  2  1  1  0  0  0  0 
  2  7  1  0  0  0  0 
  2  8  1  0  0  0  0 
  3  9  1  0  0  0  0 
  4 10  1  0  0  0  0 
  5  3  2  0  0  0  0 
  6  4  2  0  0  0  0 
  7  3  1  0  0  0  0 
  7 13  1  0  0  0  0 
  8  4  1  0  0  0  0 
  9 15  1  0  0  0  0 
 10 16  1  0  0  0  0 
 14  8  1  0  0  0  0 
M  END 
>  <HBA> 
6 
 
>  <HBD> 
4 
 
>  <TPSA> 
82.26 
 
>  <cid> 
62347 
 
>  <dipole> 
2.76 
 
>  <excitation_energy_1> 
5.459 
 
>  <excitation_energy_2> 
5.685 
 
>  <excitation_energy_3> 
5.828 
 
>  <excitation_energy_4> 
6.01 
 
>  <homo_energy> 
-6.182 
 
>  <homo_lumo_gap> 
7.287 
 
>  <logP> 
-0.421 
 
>  <lumo_energy> 
1.105 
 
>  <melting_point> 
192.09 
 
>  <molecular_refractivity> 
45.16 
 
>  <oscillator_strength_1> 
0.0004 
 
>  <oscillator_strength_2> 
0.0005 
 
>  <oscillator_strength_3> 
0.0126 
 
>  <oscillator_strength_4> 
0.0054 
 
>  <open_babel_can_smiles> 
OC1=N[C@H]2[C@@H](N1)NC(=N2)O 
 
>  <mulliken_charges> 
16 
1   0.086444 
2   0.109112 
3   0.666303 
4   0.656395 
5   -0.466013 
6   -0.459329 
7   -0.590252 
8   -0.599503 
9   -0.607017 
10   -0.605993 
11   0.146471 
12   0.154205 
13   0.328979 
14   0.326936 
15   0.425998 
16   0.427265 
 
>  <lowdin_charges> 
16 
1   0.000725 
2   -0.025427 
3   0.151746 
4   0.151792 
5   -0.278575 
6   -0.272707 
7   -0.308107 
8   -0.320622 
9   -0.353985 
10   -0.3539 
11   0.145797 
12   0.1472 
13   0.284262 
14   0.284213 
15   0.373451 
16   0.374137 
 
$$$$ 
 
