PCCDB-ID:  72779 
public computational chemistry database (PCCDB) project, http://pccdb.org 
 
 27 27  0  0  1  0  0  0  0  0999 V2000 
   -0.6103    0.7195   -1.1958 C   0  0  0  0  0  0  0  0  0  0  0  0 
    0.9193    0.4334    0.6344 C   0  0  0  0  0  0  0  0  0  0  0  0 
   -1.0828   -0.5796   -1.0124 C   0  0  0  0  0  0  0  0  0  0  0  0 
    0.4604   -0.8658    0.8286 C   0  0  0  0  0  0  0  0  0  0  0  0 
    0.8964    2.6700   -0.5903 C   0  0  0  0  0  0  0  0  0  0  0  0 
    0.3977    1.2549   -0.3797 C   0  0  0  0  0  0  0  0  0  0  0  0 
   -0.5459   -1.3787    0.0028 C   0  0  0  0  0  0  0  0  0  0  0  0 
   -0.0151    3.8180   -0.0402 C   0  0  1  0  0  0  0  0  0  0  0  0 
   -0.1589    3.7385    1.4838 C   0  0  0  0  0  0  0  0  0  0  0  0 
    0.4215    5.1445   -0.5007 N   0  0  0  0  0  0  0  0  0  0  0  0 
    1.2066    5.5135    2.1017 N   0  0  0  0  0  0  0  0  0  0  0  0 
    0.3536    4.4355    2.4168 N   0  0  0  0  0  0  0  0  0  0  0  0 
   -0.9589   -2.6599    0.2339 O   0  0  0  0  0  0  0  0  0  0  0  0 
   -1.0099    2.7446    1.9094 O   0  0  0  0  0  0  0  0  0  0  0  0 
   -1.0295    1.3234   -1.9981 H   0  0  0  0  0  0  0  0  0  0  0  0 
    1.6972    0.8227    1.2863 H   0  0  0  0  0  0  0  0  0  0  0  0 
   -1.8633   -0.9729   -1.6613 H   0  0  0  0  0  0  0  0  0  0  0  0 
    0.8695   -1.4954    1.6122 H   0  0  0  0  0  0  0  0  0  0  0  0 
    1.0123    2.8558   -1.6668 H   0  0  0  0  0  0  0  0  0  0  0  0 
    1.8896    2.7872   -0.1394 H   0  0  0  0  0  0  0  0  0  0  0  0 
   -1.0249    3.6690   -0.4458 H   0  0  0  0  0  0  0  0  0  0  0  0 
    1.4304    5.2305   -0.3793 H   0  0  0  0  0  0  0  0  0  0  0  0 
    0.2428    5.2212   -1.5010 H   0  0  0  0  0  0  0  0  0  0  0  0 
    1.2975    6.0435    2.9640 H   0  0  0  0  0  0  0  0  0  0  0  0 
    0.7752    6.1150    1.3988 H   0  0  0  0  0  0  0  0  0  0  0  0 
   -1.6565   -2.8886   -0.3998 H   0  0  0  0  0  0  0  0  0  0  0  0 
   -1.0393    2.0431    1.2386 H   0  0  0  0  0  0  0  0  0  0  0  0 
  1  3  2  0  0  0  0 
  1  6  1  0  0  0  0 
  2  4  1  0  0  0  0 
  2 16  1  0  0  0  0 
  3  7  1  0  0  0  0 
  4 18  1  0  0  0  0 
  5  6  1  0  0  0  0 
  5 20  1  0  0  0  0 
  5  8  1  0  0  0  0 
  6  2  2  0  0  0  0 
  7 13  1  0  0  0  0 
  7  4  2  0  0  0  0 
  8 21  1  6  0  0  0 
  8  9  1  0  0  0  0 
  9 14  1  0  0  0  0 
  9 12  2  0  0  0  0 
 10 22  1  0  0  0  0 
 10  8  1  0  0  0  0 
 11 12  1  0  0  0  0 
 11 24  1  0  0  0  0 
 15  1  1  0  0  0  0 
 17  3  1  0  0  0  0 
 19  5  1  0  0  0  0 
 23 10  1  0  0  0  0 
 25 11  1  0  0  0  0 
 26 13  1  0  0  0  0 
 27 14  1  0  0  0  0 
M  END 
>  <HBA> 
5 
 
>  <HBD> 
4 
 
>  <TPSA> 
101.37 
 
>  <cid> 
72779 
 
>  <dipole> 
5.17 
 
>  <excitation_energy_1> 
4.3 
 
>  <excitation_energy_2> 
4.528 
 
>  <excitation_energy_3> 
4.783 
 
>  <excitation_energy_4> 
4.886 
 
>  <homo_energy> 
-5.257 
 
>  <homo_lumo_gap> 
4.86 
 
>  <logP> 
1.043 
 
>  <lumo_energy> 
-0.397 
 
>  <melting_point> 
203.87 
 
>  <molecular_refractivity> 
51.46 
 
>  <oscillator_strength_1> 
0.0067 
 
>  <oscillator_strength_2> 
0.0059 
 
>  <oscillator_strength_3> 
0.0201 
 
>  <oscillator_strength_4> 
0.0203 
 
>  <open_babel_can_smiles> 
N[C@H](/C(=N\N)/O)Cc1ccc(cc1)O 
 
>  <mulliken_charges> 
27 
1   -0.187269 
2   -0.180325 
3   -0.190321 
4   -0.152843 
5   -0.348868 
6   0.096958 
7   0.350939 
8   -0.076131 
9   0.509947 
10   -0.725543 
11   -0.608496 
12   -0.341358 
13   -0.637337 
14   -0.612263 
15   0.129007 
16   0.149751 
17   0.124487 
18   0.150089 
19   0.140366 
20   0.161382 
21   0.150015 
22   0.319171 
23   0.305052 
24   0.319267 
25   0.330071 
26   0.409421 
27   0.41483 
 
>  <lowdin_charges> 
27 
1   -0.162255 
2   -0.150724 
3   -0.213077 
4   -0.18142 
5   -0.287036 
6   -0.049881 
7   0.105095 
8   -0.094883 
9   0.086396 
10   -0.535259 
11   -0.476404 
12   -0.148477 
13   -0.3746 
14   -0.388487 
15   0.157965 
16   0.168728 
17   0.156956 
18   0.173741 
19   0.147228 
20   0.158069 
21   0.149753 
22   0.260784 
23   0.257171 
24   0.264093 
25   0.263954 
26   0.359999 
27   0.35257 
 
$$$$ 
 
