PCCDB-ID:  17014 
public computational chemistry database (PCCDB) project, http://pccdb.org 
 
 18 18  0  0  0  0  0  0  0  0999 V2000 
    1.2910   -0.8407   -0.0510 C   0  0  0  0  0  0  0  0  0  0  0  0 
    2.8086   -0.7340   -0.2293 C   0  0  0  0  0  0  0  0  0  0  0  0 
    3.3205    0.7137   -0.1954 C   0  0  0  0  0  0  0  0  0  0  0  0 
    5.7516    0.6734    0.8052 C   0  0  0  0  0  0  0  0  0  0  0  0 
    5.5755    2.0234    0.1505 C   0  0  0  0  0  0  0  0  0  0  0  0 
    4.8221    0.8263   -0.3759 C   0  0  0  0  0  0  0  0  0  0  0  0 
    0.9563   -1.8840   -0.0806 H   0  0  0  0  0  0  0  0  0  0  0  0 
    0.7588   -0.2976   -0.8419 H   0  0  0  0  0  0  0  0  0  0  0  0 
    0.9739   -0.4168    0.9100 H   0  0  0  0  0  0  0  0  0  0  0  0 
    3.0991   -1.1963   -1.1834 H   0  0  0  0  0  0  0  0  0  0  0  0 
    3.3164   -1.3119    0.5549 H   0  0  0  0  0  0  0  0  0  0  0  0 
    3.0364    1.1774    0.7611 H   0  0  0  0  0  0  0  0  0  0  0  0 
    2.8121    1.2971   -0.9779 H   0  0  0  0  0  0  0  0  0  0  0  0 
    5.3048    0.5233    1.7857 H   0  0  0  0  0  0  0  0  0  0  0  0 
    6.6930    0.1486    0.6651 H   0  0  0  0  0  0  0  0  0  0  0  0 
    6.3951    2.4234   -0.4406 H   0  0  0  0  0  0  0  0  0  0  0  0 
    5.0119    2.7800    0.6915 H   0  0  0  0  0  0  0  0  0  0  0  0 
    5.1892    0.4169   -1.3173 H   0  0  0  0  0  0  0  0  0  0  0  0 
  1  9  1  0  0  0  0 
  2  3  1  0  0  0  0 
  2  1  1  0  0  0  0 
  2 11  1  0  0  0  0 
  3 12  1  0  0  0  0 
  4 14  1  0  0  0  0 
  5 17  1  0  0  0  0 
  5  4  1  0  0  0  0 
  6  3  1  0  0  0  0 
  6  5  1  0  0  0  0 
  6  4  1  0  0  0  0 
  7  1  1  0  0  0  0 
  8  1  1  0  0  0  0 
 10  2  1  0  0  0  0 
 13  3  1  0  0  0  0 
 15  4  1  0  0  0  0 
 16  5  1  0  0  0  0 
 18  6  1  0  0  0  0 
M  END 
>  <HBA> 
0 
 
>  <HBD> 
0 
 
>  <TPSA> 
0.0 
 
>  <cid> 
17014 
 
>  <dipole> 
0.11 
 
>  <excitation_energy_1> 
6.971 
 
>  <excitation_energy_2> 
7.235 
 
>  <excitation_energy_3> 
7.294 
 
>  <excitation_energy_4> 
7.314 
 
>  <homo_energy> 
-7.339 
 
>  <homo_lumo_gap> 
9.968 
 
>  <logP> 
2.196 
 
>  <lumo_energy> 
2.629 
 
>  <melting_point> 
-3.98 
 
>  <molecular_refractivity> 
28.84 
 
>  <oscillator_strength_1> 
0.0052 
 
>  <oscillator_strength_2> 
0.0047 
 
>  <oscillator_strength_3> 
0.0174 
 
>  <oscillator_strength_4> 
0.0045 
 
>  <open_babel_can_smiles> 
CCCC1CC1 
 
>  <mulliken_charges> 
18 
1   -0.442694 
2   -0.244439 
3   -0.255503 
4   -0.310268 
5   -0.319858 
6   -0.08464 
7   0.141628 
8   0.140912 
9   0.140355 
10   0.129106 
11   0.135096 
12   0.122472 
13   0.130388 
14   0.145954 
15   0.146478 
16   0.146428 
17   0.146353 
18   0.132232 
 
>  <lowdin_charges> 
18 
1   -0.445089 
2   -0.273493 
3   -0.267591 
4   -0.319124 
5   -0.320461 
6   -0.150098 
7   0.148202 
8   0.147048 
9   0.145625 
10   0.138542 
11   0.142753 
12   0.138272 
13   0.141951 
14   0.15423 
15   0.15649 
16   0.157526 
17   0.156515 
18   0.148701 
 
$$$$ 
 
