PCCDB-ID:  6942 
public computational chemistry database (PCCDB) project, http://pccdb.org 
 
 18 18  0  0  0  0  0  0  0  0999 V2000 
   -1.3165   -0.0835    0.4224 C   0  0  0  0  0  0  0  0  0  0  0  0 
   -0.5900   -1.2540    0.1845 C   0  0  0  0  0  0  0  0  0  0  0  0 
   -0.6693    1.1419    0.3052 C   0  0  0  0  0  0  0  0  0  0  0  0 
    0.7564   -1.1939   -0.1541 C   0  0  0  0  0  0  0  0  0  0  0  0 
    0.6922    1.2301   -0.0292 C   0  0  0  0  0  0  0  0  0  0  0  0 
    1.4270    0.0386   -0.2607 C   0  0  0  0  0  0  0  0  0  0  0  0 
    1.3419    2.5694   -0.1361 C   0  0  0  0  0  0  0  0  0  0  0  0 
    2.7873    0.0619   -0.5514 N   0  0  0  0  0  0  0  0  0  0  0  0 
    2.5022    2.9121    0.2692 N   0  0  0  0  0  0  0  0  0  0  0  0 
    0.5892    3.5370   -0.7372 O   0  0  0  0  0  0  0  0  0  0  0  0 
   -2.3662   -0.1269    0.6950 H   0  0  0  0  0  0  0  0  0  0  0  0 
   -1.0754   -2.2232    0.2629 H   0  0  0  0  0  0  0  0  0  0  0  0 
   -1.2164    2.0608    0.5029 H   0  0  0  0  0  0  0  0  0  0  0  0 
    1.3122   -2.1107   -0.3378 H   0  0  0  0  0  0  0  0  0  0  0  0 
    3.1396   -0.7617   -1.0227 H   0  0  0  0  0  0  0  0  0  0  0  0 
    3.1420    0.9251   -0.9473 H   0  0  0  0  0  0  0  0  0  0  0  0 
    2.9272    2.1398    0.7851 H   0  0  0  0  0  0  0  0  0  0  0  0 
   -0.1591    3.1105   -1.1837 H   0  0  0  0  0  0  0  0  0  0  0  0 
  1 11  1  0  0  0  0 
  2 12  1  0  0  0  0 
  2  1  2  0  0  0  0 
  3  1  1  0  0  0  0 
  3 13  1  0  0  0  0 
  4  2  1  0  0  0  0 
  5  3  2  0  0  0  0 
  6  4  2  0  0  0  0 
  6  5  1  0  0  0  0 
  7  5  1  0  0  0  0 
  7  9  2  0  0  0  0 
  8  6  1  0  0  0  0 
  9 17  1  0  0  0  0 
 10  7  1  0  0  0  0 
 14  4  1  0  0  0  0 
 15  8  1  0  0  0  0 
 16  8  1  0  0  0  0 
 18 10  1  0  0  0  0 
M  END 
>  <HBA> 
3 
 
>  <HBD> 
2 
 
>  <TPSA> 
69.11 
 
>  <cid> 
6942 
 
>  <dipole> 
4.54 
 
>  <excitation_energy_1> 
4.285 
 
>  <excitation_energy_2> 
5.058 
 
>  <excitation_energy_3> 
5.158 
 
>  <excitation_energy_4> 
5.222 
 
>  <homo_energy> 
-5.908 
 
>  <homo_lumo_gap> 
5.067 
 
>  <logP> 
1.649 
 
>  <lumo_energy> 
-0.841 
 
>  <melting_point> 
143.28 
 
>  <molecular_refractivity> 
38.94 
 
>  <oscillator_strength_1> 
0.0668 
 
>  <oscillator_strength_2> 
0.0189 
 
>  <oscillator_strength_3> 
0.0093 
 
>  <oscillator_strength_4> 
0.0132 
 
>  <open_babel_can_smiles> 
OC(=N)c1ccccc1N 
 
>  <mulliken_charges> 
18 
1   -0.136728 
2   -0.129459 
3   -0.206911 
4   -0.172113 
5   0.033421 
6   0.280245 
7   0.39977 
8   -0.807862 
9   -0.597066 
10   -0.571887 
11   0.132631 
12   0.136112 
13   0.144123 
14   0.125715 
15   0.326822 
16   0.33633 
17   0.301518 
18   0.405338 
 
>  <lowdin_charges> 
18 
1   -0.181504 
2   -0.135505 
3   -0.155937 
4   -0.196557 
5   -0.095575 
6   0.069335 
7   0.122372 
8   -0.486483 
9   -0.403973 
10   -0.361744 
11   0.159292 
12   0.161507 
13   0.163077 
14   0.157259 
15   0.280583 
16   0.284525 
17   0.262999 
18   0.356331 
 
$$$$ 
 
