PCCDB-ID:  47378 
public computational chemistry database (PCCDB) project, http://pccdb.org 
 
 37 36  0  0  0  0  0  0  0  0999 V2000 
    1.0200   -2.3518   -0.3119 C   0  0  0  0  0  0  0  0  0  0  0  0 
    6.9396    1.8834   -2.3788 C   0  0  0  0  0  0  0  0  0  0  0  0 
    5.8954   -0.8316    2.8671 C   0  0  0  0  0  0  0  0  0  0  0  0 
    4.7584   -2.1642   -3.2176 C   0  0  0  0  0  0  0  0  0  0  0  0 
    2.5514   -2.3856   -0.2524 C   0  0  0  0  0  0  0  0  0  0  0  0 
    6.6469    0.5200   -1.7416 C   0  0  0  0  0  0  0  0  0  0  0  0 
    5.1451   -0.4296    1.5916 C   0  0  0  0  0  0  0  0  0  0  0  0 
    3.1866   -1.0978   -0.7927 C   0  0  0  0  0  0  0  0  0  0  0  0 
    5.1499    0.3026   -1.4807 C   0  0  0  0  0  0  0  0  0  0  0  0 
    5.4198   -1.3950    0.4308 C   0  0  0  0  0  0  0  0  0  0  0  0 
    4.7335   -1.0941   -0.9281 C   0  0  0  0  0  0  0  0  0  0  0  0 
    5.1379   -2.2165   -1.8092 N   0  0  0  0  0  0  0  0  0  0  0  0 
    0.5846   -3.2767    0.0838 H   0  0  0  0  0  0  0  0  0  0  0  0 
    0.6641   -2.2322   -1.3430 H   0  0  0  0  0  0  0  0  0  0  0  0 
    0.6142   -1.5171    0.2740 H   0  0  0  0  0  0  0  0  0  0  0  0 
    8.0126    2.0206   -2.5564 H   0  0  0  0  0  0  0  0  0  0  0  0 
    6.6016    2.7033   -1.7332 H   0  0  0  0  0  0  0  0  0  0  0  0 
    6.4258    1.9896   -3.3422 H   0  0  0  0  0  0  0  0  0  0  0  0 
    5.6854   -0.1378    3.6892 H   0  0  0  0  0  0  0  0  0  0  0  0 
    6.9804   -0.8369    2.7047 H   0  0  0  0  0  0  0  0  0  0  0  0 
    5.6070   -1.8371    3.1974 H   0  0  0  0  0  0  0  0  0  0  0  0 
    5.1758   -3.0441   -3.7192 H   0  0  0  0  0  0  0  0  0  0  0  0 
    5.0968   -1.2701   -3.7702 H   0  0  0  0  0  0  0  0  0  0  0  0 
    3.6697   -2.2231   -3.3189 H   0  0  0  0  0  0  0  0  0  0  0  0 
    2.9329   -3.2392   -0.8241 H   0  0  0  0  0  0  0  0  0  0  0  0 
    2.8639   -2.5500    0.7872 H   0  0  0  0  0  0  0  0  0  0  0  0 
    7.2101    0.4371   -0.8027 H   0  0  0  0  0  0  0  0  0  0  0  0 
    7.0294   -0.2735   -2.3983 H   0  0  0  0  0  0  0  0  0  0  0  0 
    5.4349    0.5923    1.3142 H   0  0  0  0  0  0  0  0  0  0  0  0 
    4.0690   -0.3947    1.8055 H   0  0  0  0  0  0  0  0  0  0  0  0 
    2.8915   -0.2506   -0.1592 H   0  0  0  0  0  0  0  0  0  0  0  0 
    2.7541   -0.8799   -1.7794 H   0  0  0  0  0  0  0  0  0  0  0  0 
    4.6034    0.4794   -2.4177 H   0  0  0  0  0  0  0  0  0  0  0  0 
    4.7936    1.0780   -0.7892 H   0  0  0  0  0  0  0  0  0  0  0  0 
    5.1328   -2.4103    0.7294 H   0  0  0  0  0  0  0  0  0  0  0  0 
    6.5071   -1.4351    0.2663 H   0  0  0  0  0  0  0  0  0  0  0  0 
    6.1460   -2.3363   -1.7423 H   0  0  0  0  0  0  0  0  0  0  0  0 
  1  5  1  0  0  0  0 
  1 13  1  0  0  0  0 
  1 15  1  0  0  0  0 
  2  6  1  0  0  0  0 
  2 17  1  0  0  0  0 
  3 21  1  0  0  0  0 
  3 19  1  0  0  0  0 
  4 12  1  0  0  0  0 
  5 26  1  0  0  0  0 
  6  9  1  0  0  0  0 
  6 27  1  0  0  0  0 
  7 30  1  0  0  0  0 
  7  3  1  0  0  0  0 
  8  5  1  0  0  0  0 
  8 31  1  0  0  0  0 
  9 11  1  0  0  0  0 
  9 34  1  0  0  0  0 
 10 35  1  0  0  0  0 
 10  7  1  0  0  0  0 
 11  8  1  0  0  0  0 
 11 10  1  0  0  0  0 
 12 37  1  0  0  0  0 
 12 11  1  0  0  0  0 
 14  1  1  0  0  0  0 
 16  2  1  0  0  0  0 
 18  2  1  0  0  0  0 
 20  3  1  0  0  0  0 
 22  4  1  0  0  0  0 
 23  4  1  0  0  0  0 
 24  4  1  0  0  0  0 
 25  5  1  0  0  0  0 
 28  6  1  0  0  0  0 
 29  7  1  0  0  0  0 
 32  8  1  0  0  0  0 
 33  9  1  0  0  0  0 
 36 10  1  0  0  0  0 
M  END 
>  <HBA> 
1 
 
>  <HBD> 
1 
 
>  <TPSA> 
12.03 
 
>  <cid> 
47378 
 
>  <dipole> 
0.89 
 
>  <excitation_energy_1> 
5.18 
 
>  <excitation_energy_2> 
5.488 
 
>  <excitation_energy_3> 
5.694 
 
>  <excitation_energy_4> 
5.768 
 
>  <homo_energy> 
-5.685 
 
>  <homo_lumo_gap> 
7.551 
 
>  <logP> 
3.736 
 
>  <lumo_energy> 
1.867 
 
>  <melting_point> 
8.32 
 
>  <molecular_refractivity> 
57.83 
 
>  <oscillator_strength_1> 
0.0042 
 
>  <oscillator_strength_2> 
0.0068 
 
>  <oscillator_strength_3> 
0.0088 
 
>  <oscillator_strength_4> 
0.0048 
 
>  <open_babel_can_smiles> 
CCCC(CCC)(CCC)NC 
 
>  <mulliken_charges> 
37 
1   -0.443721 
2   -0.441527 
3   -0.4423 
4   -0.306647 
5   -0.252835 
6   -0.261918 
7   -0.261406 
8   -0.266965 
9   -0.266154 
10   -0.279386 
11   0.21409 
12   -0.562518 
13   0.139741 
14   0.137629 
15   0.136991 
16   0.140808 
17   0.142116 
18   0.141988 
19   0.14119 
20   0.140433 
21   0.143196 
22   0.145753 
23   0.124014 
24   0.152338 
25   0.155891 
26   0.129277 
27   0.135921 
28   0.12499 
29   0.134781 
30   0.138377 
31   0.128039 
32   0.123968 
33   0.126691 
34   0.128548 
35   0.147936 
36   0.118996 
37   0.291671 
 
>  <lowdin_charges> 
37 
1   -0.444431 
2   -0.441543 
3   -0.440932 
4   -0.363841 
5   -0.276378 
6   -0.279699 
7   -0.273712 
8   -0.281807 
9   -0.294641 
10   -0.280377 
11   0.060482 
12   -0.360957 
13   0.148317 
14   0.142891 
15   0.144341 
16   0.146938 
17   0.147317 
18   0.146021 
19   0.149518 
20   0.14361 
21   0.146385 
22   0.1515 
23   0.122651 
24   0.14564 
25   0.152743 
26   0.137412 
27   0.140434 
28   0.137262 
29   0.139384 
30   0.14053 
31   0.141697 
32   0.138423 
33   0.140325 
34   0.143065 
35   0.149367 
36   0.133638 
37   0.248427 
 
$$$$ 
 
