PCCDB-ID:  8298 
public computational chemistry database (PCCDB) project, http://pccdb.org 
 
 28 28  0  0  1  0  0  0  0  0999 V2000 
    0.9802   -0.1257   -0.5061 C   0  0  0  0  0  0  0  0  0  0  0  0 
    3.2269    2.5255    2.8346 C   0  0  0  0  0  0  0  0  0  0  0  0 
    0.9808    1.5134    2.4922 C   0  0  0  0  0  0  0  0  0  0  0  0 
    2.9842   -1.2225    0.6510 C   0  0  0  0  0  0  0  0  0  0  0  0 
    2.8008    1.3101    0.6808 C   0  0  0  0  0  0  0  0  0  0  0  0 
    3.0064    0.0201    2.8461 C   0  0  0  0  0  0  0  0  0  0  0  0 
    2.4592    0.0185   -0.1036 C   0  0  2  0  0  0  0  0  0  0  0  0 
    2.5592   -1.2569    2.1238 C   0  0  2  0  0  0  0  0  0  0  0  0 
    2.4866    1.3296    2.2025 C   0  0  0  0  0  0  0  0  0  0  0  0 
    3.0488   -2.4265    2.7837 O   0  0  0  0  0  0  0  0  0  0  0  0 
    0.8602   -0.9575   -1.2106 H   0  0  0  0  0  0  0  0  0  0  0  0 
    0.6182    0.7836   -1.0006 H   0  0  0  0  0  0  0  0  0  0  0  0 
    0.3184   -0.3245    0.3420 H   0  0  0  0  0  0  0  0  0  0  0  0 
    2.8869    3.4740    2.4002 H   0  0  0  0  0  0  0  0  0  0  0  0 
    4.3100    2.4541    2.6766 H   0  0  0  0  0  0  0  0  0  0  0  0 
    3.0479    2.5714    3.9160 H   0  0  0  0  0  0  0  0  0  0  0  0 
    0.5955    2.4107    1.9927 H   0  0  0  0  0  0  0  0  0  0  0  0 
    0.8141    1.6352    3.5696 H   0  0  0  0  0  0  0  0  0  0  0  0 
    0.3723    0.6674    2.1637 H   0  0  0  0  0  0  0  0  0  0  0  0 
    4.0861   -1.2202    0.6222 H   0  0  0  0  0  0  0  0  0  0  0  0 
    2.6584   -2.1455    0.1559 H   0  0  0  0  0  0  0  0  0  0  0  0 
    2.3175    2.1719    0.1997 H   0  0  0  0  0  0  0  0  0  0  0  0 
    3.8832    1.4744    0.5738 H   0  0  0  0  0  0  0  0  0  0  0  0 
    4.1091    0.0369    2.8383 H   0  0  0  0  0  0  0  0  0  0  0  0 
    2.7038   -0.0345    3.8998 H   0  0  0  0  0  0  0  0  0  0  0  0 
    3.0191    0.0831   -1.0475 H   0  0  0  0  0  0  0  0  0  0  0  0 
    1.4705   -1.3581    2.1906 H   0  0  0  0  0  0  0  0  0  0  0  0 
    4.0186   -2.3849    2.7539 H   0  0  0  0  0  0  0  0  0  0  0  0 
  1  7  1  0  0  0  0 
  1 13  1  0  0  0  0 
  2 16  1  0  0  0  0 
  3 18  1  0  0  0  0 
  4  8  1  0  0  0  0 
  5  9  1  0  0  0  0 
  6 25  1  0  0  0  0 
  7 26  1  6  0  0  0 
  7  4  1  0  0  0  0 
  7  5  1  0  0  0  0 
  8 27  1  1  0  0  0 
  8 10  1  0  0  0  0 
  8  6  1  0  0  0  0 
  9  3  1  0  0  0  0 
  9  2  1  0  0  0  0 
  9  6  1  0  0  0  0 
 11  1  1  0  0  0  0 
 12  1  1  0  0  0  0 
 14  2  1  0  0  0  0 
 15  2  1  0  0  0  0 
 17  3  1  0  0  0  0 
 19  3  1  0  0  0  0 
 20  4  1  0  0  0  0 
 21  4  1  0  0  0  0 
 22  5  1  0  0  0  0 
 23  5  1  0  0  0  0 
 24  6  1  0  0  0  0 
 28 10  1  0  0  0  0 
M  END 
>  <HBA> 
1 
 
>  <HBD> 
1 
 
>  <TPSA> 
20.23 
 
>  <cid> 
8298 
 
>  <dipole> 
1.73 
 
>  <excitation_energy_1> 
6.328 
 
>  <excitation_energy_2> 
6.717 
 
>  <excitation_energy_3> 
6.915 
 
>  <excitation_energy_4> 
7.042 
 
>  <homo_energy> 
-6.865 
 
>  <homo_lumo_gap> 
8.719 
 
>  <logP> 
2.193 
 
>  <lumo_energy> 
1.853 
 
>  <melting_point> 
31.33 
 
>  <molecular_refractivity> 
44.16 
 
>  <oscillator_strength_1> 
0.0128 
 
>  <oscillator_strength_2> 
0.0033 
 
>  <oscillator_strength_3> 
0.0154 
 
>  <oscillator_strength_4> 
0.003 
 
>  <open_babel_can_smiles> 
C[C@@H]1C[C@@H](O)CC(C1)(C)C 
 
>  <mulliken_charges> 
28 
1   -0.452087 
2   -0.445795 
3   -0.452997 
4   -0.277317 
5   -0.267681 
6   -0.275979 
7   -0.081322 
8   0.135801 
9   0.096378 
10   -0.629775 
11   0.142164 
12   0.140695 
13   0.148157 
14   0.138683 
15   0.136304 
16   0.13914 
17   0.138488 
18   0.139747 
19   0.147179 
20   0.11008 
21   0.140694 
22   0.124996 
23   0.123035 
24   0.107098 
25   0.13861 
26   0.123601 
27   0.133185 
28   0.37892 
 
>  <lowdin_charges> 
28 
1   -0.451381 
2   -0.43689 
3   -0.446554 
4   -0.292654 
5   -0.279726 
6   -0.288883 
7   -0.125606 
8   -0.005138 
9   0.01034 
10   -0.45904 
11   0.149587 
12   0.149088 
13   0.147495 
14   0.147037 
15   0.142885 
16   0.145444 
17   0.148266 
18   0.146246 
19   0.149048 
20   0.13034 
21   0.14967 
22   0.142466 
23   0.138167 
24   0.129454 
25   0.147082 
26   0.141652 
27   0.138633 
28   0.332972 
 
$$$$ 
 
