PCCDB-ID:  18168 
public computational chemistry database (PCCDB) project, http://pccdb.org 
 
 35 36  0  0  0  0  0  0  0  0999 V2000 
    0.9438   -0.3508    0.5597 C   0  0  0  0  0  0  0  0  0  0  0  0 
   13.0798    0.0128   -3.2822 C   0  0  0  0  0  0  0  0  0  0  0  0 
   13.4050   -2.2103   -2.1708 C   0  0  0  0  0  0  0  0  0  0  0  0 
    2.9116    0.7474   -0.6062 C   0  0  0  0  0  0  0  0  0  0  0  0 
    3.2480   -1.3986    0.4304 C   0  0  0  0  0  0  0  0  0  0  0  0 
    4.2479    0.7626   -1.0021 C   0  0  0  0  0  0  0  0  0  0  0  0 
    4.5799   -1.3946    0.0421 C   0  0  0  0  0  0  0  0  0  0  0  0 
    9.3534   -2.1346   -0.9537 C   0  0  0  0  0  0  0  0  0  0  0  0 
    9.0441    0.0101   -2.0125 C   0  0  0  0  0  0  0  0  0  0  0  0 
   10.6869   -2.1452   -1.3340 C   0  0  0  0  0  0  0  0  0  0  0  0 
   10.3718    0.0117   -2.3987 C   0  0  0  0  0  0  0  0  0  0  0  0 
    2.3873   -0.3302    0.1163 C   0  0  0  0  0  0  0  0  0  0  0  0 
    5.0958   -0.3051   -0.6840 C   0  0  0  0  0  0  0  0  0  0  0  0 
    8.5072   -1.0644   -1.2782 C   0  0  0  0  0  0  0  0  0  0  0  0 
   11.2384   -1.0641   -2.0638 C   0  0  0  0  0  0  0  0  0  0  0  0 
    6.4324   -0.1871   -1.1347 N   0  0  0  0  0  0  0  0  0  0  0  0 
    7.1769   -1.1672   -0.8382 N   0  0  0  0  0  0  0  0  0  0  0  0 
   12.5690   -1.0511   -2.4336 N   0  0  0  0  0  0  0  0  0  0  0  0 
    0.3865    0.4974    0.1499 H   0  0  0  0  0  0  0  0  0  0  0  0 
    0.8609   -0.3057    1.6535 H   0  0  0  0  0  0  0  0  0  0  0  0 
    0.4390   -1.2707    0.2398 H   0  0  0  0  0  0  0  0  0  0  0  0 
   14.1478   -0.1413   -3.4448 H   0  0  0  0  0  0  0  0  0  0  0  0 
   12.9529    0.9953   -2.8104 H   0  0  0  0  0  0  0  0  0  0  0  0 
   12.5842    0.0404   -4.2643 H   0  0  0  0  0  0  0  0  0  0  0  0 
   14.4207   -2.0048   -2.5126 H   0  0  0  0  0  0  0  0  0  0  0  0 
   13.0447   -3.1124   -2.6880 H   0  0  0  0  0  0  0  0  0  0  0  0 
   13.4519   -2.4318   -1.0969 H   0  0  0  0  0  0  0  0  0  0  0  0 
    2.2664    1.5848   -0.8619 H   0  0  0  0  0  0  0  0  0  0  0  0 
    2.8585   -2.2457    0.9920 H   0  0  0  0  0  0  0  0  0  0  0  0 
    4.6595    1.5966   -1.5629 H   0  0  0  0  0  0  0  0  0  0  0  0 
    5.2406   -2.2193    0.2849 H   0  0  0  0  0  0  0  0  0  0  0  0 
    8.9351   -2.9654   -0.3928 H   0  0  0  0  0  0  0  0  0  0  0  0 
    8.3934    0.8378   -2.2731 H   0  0  0  0  0  0  0  0  0  0  0  0 
   11.3010   -2.9958   -1.0647 H   0  0  0  0  0  0  0  0  0  0  0  0 
   10.7467    0.8542   -2.9679 H   0  0  0  0  0  0  0  0  0  0  0  0 
  1 20  1  0  0  0  0 
  2 23  1  0  0  0  0 
  2 18  1  0  0  0  0 
  3 27  1  0  0  0  0 
  4 12  2  0  0  0  0 
  5 29  1  0  0  0  0 
  6 13  2  0  0  0  0 
  6  4  1  0  0  0  0 
  7 31  1  0  0  0  0 
  7  5  2  0  0  0  0 
  8 32  1  0  0  0  0 
  9 14  2  0  0  0  0 
 10 34  1  0  0  0  0 
 10  8  2  0  0  0  0 
 11 15  2  0  0  0  0 
 11  9  1  0  0  0  0 
 12  5  1  0  0  0  0 
 12  1  1  0  0  0  0 
 13  7  1  0  0  0  0 
 14  8  1  0  0  0  0 
 14 17  1  0  0  0  0 
 15 10  1  0  0  0  0 
 16 17  1  0  0  0  0 
 16 13  1  0  0  0  0 
 18  3  1  0  0  0  0 
 18 15  1  0  0  0  0 
 19  1  1  0  0  0  0 
 21  1  1  0  0  0  0 
 22  2  1  0  0  0  0 
 24  2  1  0  0  0  0 
 25  3  1  0  0  0  0 
 26  3  1  0  0  0  0 
 28  4  1  0  0  0  0 
 30  6  1  0  0  0  0 
 33  9  1  0  0  0  0 
 35 11  1  0  0  0  0 
M  RAD  2  16   2  17   2 
M  END 
>  <HBA> 
3 
 
>  <HBD> 
0 
 
>  <TPSA> 
27.96 
 
>  <cid> 
18168 
 
>  <dipole> 
3.42 
 
>  <excitation_energy_1> 
2.702 
 
>  <excitation_energy_2> 
3.099 
 
>  <excitation_energy_3> 
4.135 
 
>  <excitation_energy_4> 
4.171 
 
>  <homo_energy> 
-5.021 
 
>  <homo_lumo_gap> 
3.361 
 
>  <logP> 
4.476 
 
>  <lumo_energy> 
-1.66 
 
>  <melting_point> 
76.0 
 
>  <molecular_refractivity> 
76.23 
 
>  <oscillator_strength_1> 
0.0 
 
>  <oscillator_strength_2> 
0.9857 
 
>  <oscillator_strength_3> 
0.0079 
 
>  <oscillator_strength_4> 
0.0113 
 
>  <open_babel_can_smiles> 
Cc1ccc(cc1)[N][N]c1ccc(cc1)N(C)C 
 
>  <mulliken_charges> 
35 
1   -0.531529 
2   -0.313045 
3   -0.31314 
4   -0.193285 
5   -0.194551 
6   -0.141532 
7   -0.12553 
8   -0.149425 
9   -0.135767 
10   -0.204483 
11   -0.20694 
12   0.186775 
13   0.272022 
14   0.272669 
15   0.380361 
16   -0.327862 
17   -0.320747 
18   -0.47266 
19   0.154885 
20   0.163895 
21   0.161425 
22   0.157667 
23   0.166687 
24   0.160397 
25   0.157609 
26   0.160035 
27   0.166361 
28   0.121804 
29   0.122469 
30   0.133571 
31   0.148823 
32   0.135823 
33   0.152124 
34   0.126661 
35   0.128431 
 
>  <lowdin_charges> 
35 
1   -0.441835 
2   -0.347214 
3   -0.347833 
4   -0.172365 
5   -0.164607 
6   -0.150985 
7   -0.154708 
8   -0.135971 
9   -0.13983 
10   -0.215717 
11   -0.204914 
12   0.005885 
13   0.009594 
14   -0.017186 
15   0.068303 
16   -0.103647 
17   -0.085732 
18   -0.104054 
19   0.157437 
20   0.159466 
21   0.160656 
22   0.157566 
23   0.153709 
24   0.147337 
25   0.15831 
26   0.148188 
27   0.152405 
28   0.155172 
29   0.154608 
30   0.164637 
31   0.171371 
32   0.165855 
33   0.173148 
34   0.161552 
35   0.161399 
 
$$$$ 
 
