PCCDB-ID:  34251 
public computational chemistry database (PCCDB) project, http://pccdb.org 
 
 33 34  0  0  0  0  0  0  0  0999 V2000 
    2.2636    1.0714    0.5669 C   0  0  0  0  0  0  0  0  0  0  0  0 
    1.1542    0.1596   -1.3515 C   0  0  0  0  0  0  0  0  0  0  0  0 
    3.6688    8.4909   -0.7935 C   0  0  0  0  0  0  0  0  0  0  0  0 
    5.1433    6.9573   -2.6652 C   0  0  0  0  0  0  0  0  0  0  0  0 
    5.8524    6.1582   -3.5592 C   0  0  0  0  0  0  0  0  0  0  0  0 
    4.5575    1.8065   -1.3566 C   0  0  0  0  0  0  0  0  0  0  0  0 
    3.0624    1.5962   -1.6708 C   0  0  0  0  0  0  0  0  0  0  0  0 
    4.4096    4.9838   -1.4435 C   0  0  0  0  0  0  0  0  0  0  0  0 
    6.0216    2.2900   -3.3704 C   0  0  0  0  0  0  0  0  0  0  0  0 
    5.2365    2.7201   -2.3453 C   0  0  0  0  0  0  0  0  0  0  0  0 
    4.4233    6.3689   -1.6064 C   0  0  0  0  0  0  0  0  0  0  0  0 
    5.1155    4.1675   -2.3383 C   0  0  0  0  0  0  0  0  0  0  0  0 
    5.8389    4.7742   -3.3961 C   0  0  0  0  0  0  0  0  0  0  0  0 
    2.4298    0.6025   -0.8030 N   0  0  0  0  0  0  0  0  0  0  0  0 
    3.7026    7.0785   -0.6837 O   0  0  0  0  0  0  0  0  0  0  0  0 
    6.6571    3.5688   -4.3830 S   0  0  0  0  0  0  0  0  0  0  0  0 
    1.8189    0.2743    1.1728 H   0  0  0  0  0  0  0  0  0  0  0  0 
    1.6097    1.9638    0.6447 H   0  0  0  0  0  0  0  0  0  0  0  0 
    3.2322    1.3201    1.0098 H   0  0  0  0  0  0  0  0  0  0  0  0 
    0.7381   -0.6326   -0.7192 H   0  0  0  0  0  0  0  0  0  0  0  0 
    1.3041   -0.2511   -2.3557 H   0  0  0  0  0  0  0  0  0  0  0  0 
    0.4007    0.9696   -1.4211 H   0  0  0  0  0  0  0  0  0  0  0  0 
    3.0463    8.8400    0.0327 H   0  0  0  0  0  0  0  0  0  0  0  0 
    3.2216    8.8147   -1.7431 H   0  0  0  0  0  0  0  0  0  0  0  0 
    4.6710    8.9307   -0.6999 H   0  0  0  0  0  0  0  0  0  0  0  0 
    5.1547    8.0329   -2.7966 H   0  0  0  0  0  0  0  0  0  0  0  0 
    6.4065    6.6188   -4.3721 H   0  0  0  0  0  0  0  0  0  0  0  0 
    5.0444    0.8251   -1.3561 H   0  0  0  0  0  0  0  0  0  0  0  0 
    4.6784    2.2187   -0.3469 H   0  0  0  0  0  0  0  0  0  0  0  0 
    2.9841    1.2340   -2.7022 H   0  0  0  0  0  0  0  0  0  0  0  0 
    2.5309    2.5684   -1.6386 H   0  0  0  0  0  0  0  0  0  0  0  0 
    3.8426    4.5643   -0.6185 H   0  0  0  0  0  0  0  0  0  0  0  0 
    6.2804    1.2635   -3.5995 H   0  0  0  0  0  0  0  0  0  0  0  0 
  1 18  1  0  0  0  0 
  1 19  1  0  0  0  0 
  1 17  1  0  0  0  0 
  2 14  1  0  0  0  0 
  2 20  1  0  0  0  0 
  3 25  1  0  0  0  0 
  3 15  1  0  0  0  0 
  3 23  1  0  0  0  0 
  4 11  2  0  0  0  0 
  5 13  2  0  0  0  0 
  5  4  1  0  0  0  0 
  6 28  1  0  0  0  0 
  6 29  1  0  0  0  0 
  7 31  1  0  0  0  0 
  7  6  1  0  0  0  0 
  7 14  1  0  0  0  0 
  8 32  1  0  0  0  0 
  9 10  2  0  0  0  0 
 10 12  1  0  0  0  0 
 10  6  1  0  0  0  0 
 11  8  1  0  0  0  0 
 11 15  1  0  0  0  0 
 12  8  2  0  0  0  0 
 13 12  1  0  0  0  0 
 14  1  1  0  0  0  0 
 16 13  1  0  0  0  0 
 16  9  1  0  0  0  0 
 21  2  1  0  0  0  0 
 22  2  1  0  0  0  0 
 24  3  1  0  0  0  0 
 26  4  1  0  0  0  0 
 27  5  1  0  0  0  0 
 30  7  1  0  0  0  0 
 33  9  1  0  0  0  0 
M  END 
>  <HBA> 
3 
 
>  <HBD> 
0 
 
>  <TPSA> 
40.71 
 
>  <cid> 
34251 
 
>  <dipole> 
1.72 
 
>  <excitation_energy_1> 
4.217 
 
>  <excitation_energy_2> 
4.484 
 
>  <excitation_energy_3> 
4.697 
 
>  <excitation_energy_4> 
4.819 
 
>  <homo_energy> 
-5.442 
 
>  <homo_lumo_gap> 
4.857 
 
>  <logP> 
3.014 
 
>  <lumo_energy> 
-0.585 
 
>  <melting_point> 
58.47 
 
>  <molecular_refractivity> 
70.6 
 
>  <oscillator_strength_1> 
0.0699 
 
>  <oscillator_strength_2> 
0.0043 
 
>  <oscillator_strength_3> 
0.0105 
 
>  <oscillator_strength_4> 
0.0006 
 
>  <open_babel_can_smiles> 
COc1ccc2c(c1)c(CCN(C)C)cs2 
 
>  <mulliken_charges> 
33 
1   -0.30302 
2   -0.294367 
3   -0.213677 
4   -0.186454 
5   -0.176207 
6   -0.348176 
7   -0.110733 
8   -0.245067 
9   -0.413774 
10   0.1576 
11   0.374248 
12   0.124832 
13   -0.150368 
14   -0.367092 
15   -0.511869 
16   0.21676 
17   0.149039 
18   0.117654 
19   0.15327 
20   0.147074 
21   0.148948 
22   0.118164 
23   0.169044 
24   0.150649 
25   0.150758 
26   0.13215 
27   0.140405 
28   0.154044 
29   0.149907 
30   0.141111 
31   0.120174 
32   0.136776 
33   0.168198 
 
>  <lowdin_charges> 
33 
1   -0.36024 
2   -0.35666 
3   -0.277062 
4   -0.210551 
5   -0.151728 
6   -0.273543 
7   -0.198083 
8   -0.194099 
9   -0.311801 
10   -0.028696 
11   0.098637 
12   -0.013481 
13   -0.14975 
14   -0.184662 
15   -0.203552 
16   0.271366 
17   0.152125 
18   0.120095 
19   0.150339 
20   0.150115 
21   0.148811 
22   0.121062 
23   0.163385 
24   0.144136 
25   0.143644 
26   0.162108 
27   0.165341 
28   0.158088 
29   0.150568 
30   0.146306 
31   0.121013 
32   0.168175 
33   0.178592 
 
$$$$ 
 
