PCCDB-ID:  16663 
public computational chemistry database (PCCDB) project, http://pccdb.org 
 
 29 28  0  0  0  0  0  0  0  0999 V2000 
    2.4768    1.0891   -0.7598 C   0  0  0  0  0  0  0  0  0  0  0  0 
    4.9866   -5.3069   -1.2405 C   0  0  0  0  0  0  0  0  0  0  0  0 
    6.8560   -1.1200    0.4191 C   0  0  0  0  0  0  0  0  0  0  0  0 
    2.4076   -0.0119    0.3052 C   0  0  0  0  0  0  0  0  0  0  0  0 
    4.6531   -4.0557   -0.4196 C   0  0  0  0  0  0  0  0  0  0  0  0 
    5.3518   -1.1625    0.7158 C   0  0  0  0  0  0  0  0  0  0  0  0 
    2.9534   -1.3791   -0.1481 C   0  0  0  0  0  0  0  0  0  0  0  0 
    4.8000   -2.7632   -1.2372 C   0  0  0  0  0  0  0  0  0  0  0  0 
    4.4553   -1.4401   -0.5105 C   0  0  0  0  0  0  0  0  0  0  0  0 
    2.0125    2.0142   -0.3990 H   0  0  0  0  0  0  0  0  0  0  0  0 
    1.9501    0.7873   -1.6741 H   0  0  0  0  0  0  0  0  0  0  0  0 
    3.5093    1.3288   -1.0376 H   0  0  0  0  0  0  0  0  0  0  0  0 
    4.3227   -5.3993   -2.1090 H   0  0  0  0  0  0  0  0  0  0  0  0 
    4.8812   -6.2193   -0.6422 H   0  0  0  0  0  0  0  0  0  0  0  0 
    6.0169   -5.2720   -1.6161 H   0  0  0  0  0  0  0  0  0  0  0  0 
    7.4201   -0.8132    1.3075 H   0  0  0  0  0  0  0  0  0  0  0  0 
    7.0822   -0.4026   -0.3800 H   0  0  0  0  0  0  0  0  0  0  0  0 
    7.2439   -2.0959    0.1071 H   0  0  0  0  0  0  0  0  0  0  0  0 
    1.3591   -0.1496    0.6024 H   0  0  0  0  0  0  0  0  0  0  0  0 
    2.9297    0.3225    1.2111 H   0  0  0  0  0  0  0  0  0  0  0  0 
    5.3091   -4.0190    0.4605 H   0  0  0  0  0  0  0  0  0  0  0  0 
    3.6291   -4.1420   -0.0336 H   0  0  0  0  0  0  0  0  0  0  0  0 
    5.0602   -0.1989    1.1520 H   0  0  0  0  0  0  0  0  0  0  0  0 
    5.1527   -1.9135    1.4934 H   0  0  0  0  0  0  0  0  0  0  0  0 
    2.3720   -1.7070   -1.0229 H   0  0  0  0  0  0  0  0  0  0  0  0 
    2.7456   -2.1114    0.6444 H   0  0  0  0  0  0  0  0  0  0  0  0 
    4.1599   -2.8379   -2.1287 H   0  0  0  0  0  0  0  0  0  0  0  0 
    5.8289   -2.7066   -1.6182 H   0  0  0  0  0  0  0  0  0  0  0  0 
    4.6549   -0.6406   -1.2405 H   0  0  0  0  0  0  0  0  0  0  0  0 
  1 10  1  0  0  0  0 
  1  4  1  0  0  0  0 
  2 14  1  0  0  0  0 
  2  5  1  0  0  0  0 
  3  6  1  0  0  0  0 
  3 16  1  0  0  0  0 
  4 19  1  0  0  0  0 
  4 20  1  0  0  0  0 
  5 22  1  0  0  0  0 
  5 21  1  0  0  0  0 
  6 23  1  0  0  0  0 
  6 24  1  0  0  0  0 
  7  4  1  0  0  0  0 
  7 26  1  0  0  0  0 
  8  9  1  0  0  0  0 
  8  5  1  0  0  0  0 
  9  7  1  0  0  0  0 
  9  6  1  0  0  0  0 
 11  1  1  0  0  0  0 
 12  1  1  0  0  0  0 
 13  2  1  0  0  0  0 
 15  2  1  0  0  0  0 
 17  3  1  0  0  0  0 
 18  3  1  0  0  0  0 
 25  7  1  0  0  0  0 
 27  8  1  0  0  0  0 
 28  8  1  0  0  0  0 
 29  9  1  0  0  0  0 
M  END 
>  <HBA> 
0 
 
>  <HBD> 
0 
 
>  <TPSA> 
0.0 
 
>  <cid> 
16663 
 
>  <dipole> 
0.12 
 
>  <excitation_energy_1> 
7.536 
 
>  <excitation_energy_2> 
7.592 
 
>  <excitation_energy_3> 
7.689 
 
>  <excitation_energy_4> 
7.77 
 
>  <homo_energy> 
-8.0 
 
>  <homo_lumo_gap> 
10.172 
 
>  <logP> 
3.613 
 
>  <lumo_energy> 
2.171 
 
>  <melting_point> 
-28.56 
 
>  <molecular_refractivity> 
45.38 
 
>  <oscillator_strength_1> 
0.0018 
 
>  <oscillator_strength_2> 
0.0047 
 
>  <oscillator_strength_3> 
0.0016 
 
>  <oscillator_strength_4> 
0.0089 
 
>  <open_babel_can_smiles> 
CCCC(CCC)CC 
 
>  <mulliken_charges> 
29 
1   -0.443366 
2   -0.441451 
3   -0.449981 
4   -0.256287 
5   -0.255899 
6   -0.257621 
7   -0.257603 
8   -0.260562 
9   -0.069414 
10   0.141049 
11   0.140292 
12   0.146115 
13   0.140823 
14   0.140231 
15   0.140192 
16   0.14058 
17   0.140294 
18   0.146588 
19   0.129962 
20   0.134445 
21   0.134303 
22   0.135553 
23   0.133609 
24   0.13015 
25   0.122252 
26   0.128076 
27   0.123284 
28   0.12829 
29   0.116095 
 
>  <lowdin_charges> 
29 
1   -0.447199 
2   -0.442942 
3   -0.448202 
4   -0.274921 
5   -0.27677 
6   -0.278821 
7   -0.280233 
8   -0.278103 
9   -0.130377 
10   0.14947 
11   0.145965 
12   0.145616 
13   0.146083 
14   0.1484 
15   0.14442 
16   0.149868 
17   0.146514 
18   0.146907 
19   0.14076 
20   0.139854 
21   0.140196 
22   0.139809 
23   0.142256 
24   0.139166 
25   0.138452 
26   0.140685 
27   0.138334 
28   0.138617 
29   0.136196 
 
$$$$ 
 
