PCCDB-ID:  33944 
public computational chemistry database (PCCDB) project, http://pccdb.org 
 
 25 25  0  0  0  0  0  0  0  0999 V2000 
    0.7724    1.2579   -1.0812 C   0  0  0  0  0  0  0  0  0  0  0  0 
    1.5346    0.1597   -0.3223 C   0  0  0  0  0  0  0  0  0  0  0  0 
   -0.5785    1.5462   -0.4066 C   0  0  0  0  0  0  0  0  0  0  0  0 
   -1.8560   -1.0650    2.6684 C   0  0  0  0  0  0  0  0  0  0  0  0 
    0.6394   -1.0800   -0.1367 C   0  0  0  0  0  0  0  0  0  0  0  0 
   -1.3773    0.2429   -0.2089 C   0  0  0  0  0  0  0  0  0  0  0  0 
   -0.5750   -0.6039    1.9622 C   0  0  0  0  0  0  0  0  0  0  0  0 
   -1.7304   -0.8544    4.1161 N   0  0  0  0  0  0  0  0  0  0  0  0 
   -0.6459   -0.8065    0.5131 N   0  0  0  0  0  0  0  0  0  0  0  0 
    0.5942    0.9209   -2.1139 H   0  0  0  0  0  0  0  0  0  0  0  0 
    1.3743    2.1727   -1.1507 H   0  0  0  0  0  0  0  0  0  0  0  0 
    1.8482    0.5373    0.6612 H   0  0  0  0  0  0  0  0  0  0  0  0 
    2.4497   -0.1191   -0.8618 H   0  0  0  0  0  0  0  0  0  0  0  0 
   -1.1683    2.2523   -1.0060 H   0  0  0  0  0  0  0  0  0  0  0  0 
   -0.4082    2.0270    0.5664 H   0  0  0  0  0  0  0  0  0  0  0  0 
   -2.0610   -2.1065    2.3670 H   0  0  0  0  0  0  0  0  0  0  0  0 
   -2.7059   -0.4639    2.3227 H   0  0  0  0  0  0  0  0  0  0  0  0 
    1.1606   -1.8551    0.4373 H   0  0  0  0  0  0  0  0  0  0  0  0 
    0.4234   -1.5106   -1.1267 H   0  0  0  0  0  0  0  0  0  0  0  0 
   -1.6488   -0.1622   -1.1952 H   0  0  0  0  0  0  0  0  0  0  0  0 
   -2.3177    0.4448    0.3151 H   0  0  0  0  0  0  0  0  0  0  0  0 
    0.2614   -1.2054    2.3430 H   0  0  0  0  0  0  0  0  0  0  0  0 
   -0.3665    0.4366    2.2632 H   0  0  0  0  0  0  0  0  0  0  0  0 
   -1.0460   -1.5078    4.4966 H   0  0  0  0  0  0  0  0  0  0  0  0 
   -2.6116   -1.0798    4.5742 H   0  0  0  0  0  0  0  0  0  0  0  0 
  1  3  1  0  0  0  0 
  1  2  1  0  0  0  0 
  2  5  1  0  0  0  0 
  2 12  1  0  0  0  0 
  3  6  1  0  0  0  0 
  3 15  1  0  0  0  0 
  4  8  1  0  0  0  0 
  5 18  1  0  0  0  0 
  5  9  1  0  0  0  0 
  6 21  1  0  0  0  0 
  6  9  1  0  0  0  0 
  7 23  1  0  0  0  0 
  7 22  1  0  0  0  0 
  7  4  1  0  0  0  0 
  8 24  1  0  0  0  0 
  8 25  1  0  0  0  0 
  9  7  1  0  0  0  0 
 10  1  1  0  0  0  0 
 11  1  1  0  0  0  0 
 13  2  1  0  0  0  0 
 14  3  1  0  0  0  0 
 16  4  1  0  0  0  0 
 17  4  1  0  0  0  0 
 19  5  1  0  0  0  0 
 20  6  1  0  0  0  0 
M  END 
>  <HBA> 
2 
 
>  <HBD> 
1 
 
>  <TPSA> 
29.26 
 
>  <cid> 
33944 
 
>  <dipole> 
0.67 
 
>  <excitation_energy_1> 
4.797 
 
>  <excitation_energy_2> 
5.107 
 
>  <excitation_energy_3> 
5.223 
 
>  <excitation_energy_4> 
5.333 
 
>  <homo_energy> 
-5.279 
 
>  <homo_lumo_gap> 
7.486 
 
>  <logP> 
1.069 
 
>  <lumo_energy> 
2.207 
 
>  <melting_point> 
52.24 
 
>  <molecular_refractivity> 
43.17 
 
>  <oscillator_strength_1> 
0.0111 
 
>  <oscillator_strength_2> 
0.0054 
 
>  <oscillator_strength_3> 
0.0062 
 
>  <oscillator_strength_4> 
0.0054 
 
>  <open_babel_can_smiles> 
NCCN1CCCCC1 
 
>  <mulliken_charges> 
25 
1   -0.257359 
2   -0.262375 
3   -0.265717 
4   -0.136954 
5   -0.141271 
6   -0.144536 
7   -0.117076 
8   -0.721091 
9   -0.377624 
10   0.125847 
11   0.13163 
12   0.133947 
13   0.127262 
14   0.128327 
15   0.137417 
16   0.122791 
17   0.138078 
18   0.133107 
19   0.130738 
20   0.13238 
21   0.137238 
22   0.123122 
23   0.134636 
24   0.29089 
25   0.296595 
 
>  <lowdin_charges> 
25 
1   -0.277696 
2   -0.294906 
3   -0.296284 
4   -0.210756 
5   -0.205499 
6   -0.205415 
7   -0.206049 
8   -0.562265 
9   -0.190341 
10   0.135019 
11   0.143369 
12   0.139933 
13   0.14373 
14   0.145652 
15   0.141224 
16   0.121702 
17   0.140938 
18   0.143615 
19   0.136496 
20   0.138396 
21   0.144424 
22   0.139498 
23   0.128224 
24   0.251378 
25   0.255615 
 
$$$$ 
 
