PCCDB-ID:  9267 
public computational chemistry database (PCCDB) project, http://pccdb.org 
 
 30 30  0  0  0  0  0  0  0  0999 V2000 
    0.2545    1.4762    0.4975 C   0  0  0  0  0  0  0  0  0  0  0  0 
   -1.0243    1.8136   -0.3071 C   0  0  0  0  0  0  0  0  0  0  0  0 
    1.5542    1.3787   -0.3377 C   0  0  0  0  0  0  0  0  0  0  0  0 
   -2.3097    1.1467    0.2290 C   0  0  0  0  0  0  0  0  0  0  0  0 
    2.5623    0.3255    0.1714 C   0  0  0  0  0  0  0  0  0  0  0  0 
   -2.5613   -0.3263   -0.1711 C   0  0  0  0  0  0  0  0  0  0  0  0 
    2.3115   -1.1472   -0.2302 C   0  0  0  0  0  0  0  0  0  0  0  0 
   -1.5513   -1.3770    0.3390 C   0  0  0  0  0  0  0  0  0  0  0  0 
    1.0259   -1.8143    0.3046 C   0  0  0  0  0  0  0  0  0  0  0  0 
   -0.2525   -1.4711   -0.4971 C   0  0  0  0  0  0  0  0  0  0  0  0 
    0.1020    0.5345    1.0279 H   0  0  0  0  0  0  0  0  0  0  0  0 
    0.3895    2.2245    1.2899 H   0  0  0  0  0  0  0  0  0  0  0  0 
   -0.8928    1.5246   -1.3593 H   0  0  0  0  0  0  0  0  0  0  0  0 
   -1.1672    2.9021   -0.3212 H   0  0  0  0  0  0  0  0  0  0  0  0 
    2.0459    2.3602   -0.3592 H   0  0  0  0  0  0  0  0  0  0  0  0 
    1.3103    1.1532   -1.3854 H   0  0  0  0  0  0  0  0  0  0  0  0 
   -3.1739    1.7254   -0.1248 H   0  0  0  0  0  0  0  0  0  0  0  0 
   -2.3264    1.2274    1.3264 H   0  0  0  0  0  0  0  0  0  0  0  0 
    2.6277    0.3907    1.2681 H   0  0  0  0  0  0  0  0  0  0  0  0 
    3.5604    0.5924   -0.2021 H   0  0  0  0  0  0  0  0  0  0  0  0 
   -2.6287   -0.3939   -1.2674 H   0  0  0  0  0  0  0  0  0  0  0  0 
   -3.5587   -0.5928    0.2047 H   0  0  0  0  0  0  0  0  0  0  0  0 
    3.1753   -1.7258    0.1248 H   0  0  0  0  0  0  0  0  0  0  0  0 
    2.3298   -1.2281   -1.3276 H   0  0  0  0  0  0  0  0  0  0  0  0 
   -2.0399   -2.3600    0.3627 H   0  0  0  0  0  0  0  0  0  0  0  0 
   -1.3070   -1.1485    1.3860 H   0  0  0  0  0  0  0  0  0  0  0  0 
    0.8959   -1.5291    1.3581 H   0  0  0  0  0  0  0  0  0  0  0  0 
    1.1666   -2.9032    0.3151 H   0  0  0  0  0  0  0  0  0  0  0  0 
   -0.0989   -0.5265   -1.0215 H   0  0  0  0  0  0  0  0  0  0  0  0 
   -0.3891   -2.2136   -1.2947 H   0  0  0  0  0  0  0  0  0  0  0  0 
  1 11  1  0  0  0  0 
  1 12  1  0  0  0  0 
  2  4  1  0  0  0  0 
  2  1  1  0  0  0  0 
  3  5  1  0  0  0  0 
  3  1  1  0  0  0  0 
  4 18  1  0  0  0  0 
  5 19  1  0  0  0  0 
  6 22  1  0  0  0  0 
  6  4  1  0  0  0  0 
  6  8  1  0  0  0  0 
  7 23  1  0  0  0  0 
  7  5  1  0  0  0  0 
  7  9  1  0  0  0  0 
  8 25  1  0  0  0  0 
  8 26  1  0  0  0  0 
  9 28  1  0  0  0  0 
  9 27  1  0  0  0  0 
 10  9  1  0  0  0  0 
 10  8  1  0  0  0  0 
 13  2  1  0  0  0  0 
 14  2  1  0  0  0  0 
 15  3  1  0  0  0  0 
 16  3  1  0  0  0  0 
 17  4  1  0  0  0  0 
 20  5  1  0  0  0  0 
 21  6  1  0  0  0  0 
 24  7  1  0  0  0  0 
 29 10  1  0  0  0  0 
 30 10  1  0  0  0  0 
M  END 
>  <HBA> 
0 
 
>  <HBD> 
0 
 
>  <TPSA> 
0.0 
 
>  <cid> 
9267 
 
>  <dipole> 
0.0 
 
>  <excitation_energy_1> 
7.321 
 
>  <excitation_energy_2> 
7.461 
 
>  <excitation_energy_3> 
7.482 
 
>  <excitation_energy_4> 
7.547 
 
>  <homo_energy> 
-7.685 
 
>  <homo_lumo_gap> 
10.079 
 
>  <logP> 
3.901 
 
>  <lumo_energy> 
2.395 
 
>  <melting_point> 
-6.64 
 
>  <molecular_refractivity> 
48.07 
 
>  <oscillator_strength_1> 
0.0 
 
>  <oscillator_strength_2> 
0.0031 
 
>  <oscillator_strength_3> 
0.0 
 
>  <oscillator_strength_4> 
0.0017 
 
>  <open_babel_can_smiles> 
C1CCCCCCCCC1 
 
>  <mulliken_charges> 
30 
1   -0.274028 
2   -0.25889 
3   -0.259135 
4   -0.260081 
5   -0.259955 
6   -0.259969 
7   -0.26008 
8   -0.258985 
9   -0.258681 
10   -0.273996 
11   0.151081 
12   0.131486 
13   0.130081 
14   0.129863 
15   0.1299 
16   0.130177 
17   0.127169 
18   0.127603 
19   0.127614 
20   0.127194 
21   0.127605 
22   0.12715 
23   0.127152 
24   0.12755 
25   0.129864 
26   0.130057 
27   0.129851 
28   0.129829 
29   0.151231 
30   0.131344 
 
>  <lowdin_charges> 
30 
1   -0.289506 
2   -0.278694 
3   -0.280346 
4   -0.275271 
5   -0.274122 
6   -0.274124 
7   -0.275265 
8   -0.280172 
9   -0.278528 
10   -0.28944 
11   0.149436 
12   0.142583 
13   0.135274 
14   0.139468 
15   0.141147 
16   0.135411 
17   0.142638 
18   0.13528 
19   0.135322 
20   0.14131 
21   0.13532 
22   0.14128 
23   0.142648 
24   0.135246 
25   0.141079 
26   0.135355 
27   0.13516 
28   0.139411 
29   0.14964 
30   0.14246 
 
$$$$ 
 
