PCCDB-ID:  61989 
public computational chemistry database (PCCDB) project, http://pccdb.org 
 
 25 24  0  0  0  0  0  0  0  0999 V2000 
   -2.5400    1.5141   -1.4540 C   0  0  0  0  0  0  0  0  0  0  0  0 
    4.3749    3.4803   -5.8991 C   0  0  0  0  0  0  0  0  0  0  0  0 
   -0.2112    2.6318   -1.2701 C   0  0  0  0  0  0  0  0  0  0  0  0 
    3.3084    3.6325   -3.5445 C   0  0  0  0  0  0  0  0  0  0  0  0 
    1.2781    2.3675   -1.0525 C   0  0  0  0  0  0  0  0  0  0  0  0 
    2.3715    4.4529   -2.6589 C   0  0  0  0  0  0  0  0  0  0  0  0 
   -1.0311    1.3492   -1.3938 C   0  0  0  0  0  0  0  0  0  0  0  0 
    3.3364    4.1181   -4.9922 C   0  0  0  0  0  0  0  0  0  0  0  0 
   -0.5032    0.2536   -1.4371 O   0  0  0  0  0  0  0  0  0  0  0  0 
    2.5734    4.9763   -5.3950 O   0  0  0  0  0  0  0  0  0  0  0  0 
    2.2991    3.8876   -0.9129 S   0  0  0  0  0  0  0  0  0  0  0  0 
   -2.8277    2.2497   -2.2148 H   0  0  0  0  0  0  0  0  0  0  0  0 
   -2.9129    1.8888   -0.4919 H   0  0  0  0  0  0  0  0  0  0  0  0 
   -3.0091    0.5521   -1.6700 H   0  0  0  0  0  0  0  0  0  0  0  0 
    5.3776    3.8183   -5.6061 H   0  0  0  0  0  0  0  0  0  0  0  0 
    4.1906    3.7711   -6.9353 H   0  0  0  0  0  0  0  0  0  0  0  0 
    4.3677    2.3878   -5.8081 H   0  0  0  0  0  0  0  0  0  0  0  0 
   -0.3779    3.2221   -2.1830 H   0  0  0  0  0  0  0  0  0  0  0  0 
   -0.6191    3.2434   -0.4543 H   0  0  0  0  0  0  0  0  0  0  0  0 
    3.0128    2.5731   -3.5575 H   0  0  0  0  0  0  0  0  0  0  0  0 
    4.3296    3.6409   -3.1407 H   0  0  0  0  0  0  0  0  0  0  0  0 
    1.6730    1.7184   -1.8385 H   0  0  0  0  0  0  0  0  0  0  0  0 
    1.4321    1.8333   -0.1104 H   0  0  0  0  0  0  0  0  0  0  0  0 
    1.3664    4.4852   -3.0879 H   0  0  0  0  0  0  0  0  0  0  0  0 
    2.7147    5.4903   -2.6079 H   0  0  0  0  0  0  0  0  0  0  0  0 
  1  7  1  0  0  0  0 
  1 13  1  0  0  0  0 
  2 17  1  0  0  0  0 
  2 15  1  0  0  0  0 
  2  8  1  0  0  0  0 
  3  5  1  0  0  0  0 
  3 19  1  0  0  0  0 
  4 21  1  0  0  0  0 
  4  6  1  0  0  0  0 
  5 11  1  0  0  0  0 
  5 23  1  0  0  0  0 
  6 25  1  0  0  0  0 
  6 11  1  0  0  0  0 
  7  3  1  0  0  0  0 
  8  4  1  0  0  0  0 
  9  7  2  0  0  0  0 
 10  8  2  0  0  0  0 
 12  1  1  0  0  0  0 
 14  1  1  0  0  0  0 
 16  2  1  0  0  0  0 
 18  3  1  0  0  0  0 
 20  4  1  0  0  0  0 
 22  5  1  0  0  0  0 
 24  6  1  0  0  0  0 
M  END 
>  <HBA> 
3 
 
>  <HBD> 
0 
 
>  <TPSA> 
59.44 
 
>  <cid> 
61989 
 
>  <dipole> 
0.51 
 
>  <excitation_energy_1> 
4.294 
 
>  <excitation_energy_2> 
4.304 
 
>  <excitation_energy_3> 
4.846 
 
>  <excitation_energy_4> 
4.855 
 
>  <homo_energy> 
-5.981 
 
>  <homo_lumo_gap> 
5.472 
 
>  <logP> 
1.678 
 
>  <lumo_energy> 
-0.509 
 
>  <melting_point> 
23.86 
 
>  <molecular_refractivity> 
48.56 
 
>  <oscillator_strength_1> 
0.0016 
 
>  <oscillator_strength_2> 
0.0 
 
>  <oscillator_strength_3> 
0.0027 
 
>  <oscillator_strength_4> 
0.0007 
 
>  <open_babel_can_smiles> 
CC(=O)CCSCCC(=O)C 
 
>  <mulliken_charges> 
25 
1   -0.528373 
2   -0.528654 
3   -0.35002 
4   -0.350254 
5   -0.418662 
6   -0.418974 
7   0.450494 
8   0.450598 
9   -0.43489 
10   -0.435169 
11   0.085826 
12   0.167731 
13   0.174318 
14   0.18211 
15   0.175565 
16   0.182267 
17   0.166779 
18   0.168765 
19   0.173523 
20   0.16919 
21   0.173282 
22   0.184584 
23   0.187669 
24   0.184971 
25   0.187325 
 
>  <lowdin_charges> 
25 
1   -0.476089 
2   -0.471645 
3   -0.318472 
4   -0.315131 
5   -0.375111 
6   -0.373485 
7   0.166568 
8   0.165525 
9   -0.237337 
10   -0.236542 
11   0.093611 
12   0.169479 
13   0.173415 
14   0.174278 
15   0.173834 
16   0.173367 
17   0.166042 
18   0.165791 
19   0.169896 
20   0.164415 
21   0.167806 
22   0.165239 
23   0.176046 
24   0.163698 
25   0.174804 
 
$$$$ 
 
