PCCDB-ID:  65136 
public computational chemistry database (PCCDB) project, http://pccdb.org 
 
 12 11  0  0  0  0  0  0  0  0999 V2000 
    0.8738   -1.0334    0.1030 C   0  0  0  0  0  0  0  0  0  0  0  0 
    2.1146   -0.2665   -0.3665 C   0  0  0  0  0  0  0  0  0  0  0  0 
    1.9932    1.2159   -0.1060 C   0  0  0  0  0  0  0  0  0  0  0  0 
    0.9834    1.8909   -0.1685 O   0  0  0  0  0  0  0  0  0  0  0  0 
    3.0962    3.1837    0.3941 O   0  0  0  0  0  0  0  0  0  0  0  0 
    3.1966    1.7553    0.2012 O   0  0  0  0  0  0  0  0  0  0  0  0 
    0.9569   -2.0889   -0.1729 H   0  0  0  0  0  0  0  0  0  0  0  0 
   -0.0294   -0.6214   -0.3545 H   0  0  0  0  0  0  0  0  0  0  0  0 
    0.7599   -0.9729    1.1901 H   0  0  0  0  0  0  0  0  0  0  0  0 
    2.2462   -0.3844   -1.4508 H   0  0  0  0  0  0  0  0  0  0  0  0 
    3.0296   -0.6395    0.1038 H   0  0  0  0  0  0  0  0  0  0  0  0 
    2.1225    3.3048    0.2557 H   0  0  0  0  0  0  0  0  0  0  0  0 
  1  9  1  0  0  0  0 
  2  3  1  0  0  0  0 
  2  1  1  0  0  0  0 
  2 11  1  0  0  0  0 
  3  6  1  0  0  0  0 
  4  3  2  0  0  0  0 
  6  5  1  0  0  0  0 
  7  1  1  0  0  0  0 
  8  1  1  0  0  0  0 
 10  2  1  0  0  0  0 
 12  5  1  0  0  0  0 
M  END 
>  <HBA> 
3 
 
>  <HBD> 
1 
 
>  <TPSA> 
46.53 
 
>  <cid> 
65136 
 
>  <dipole> 
2.41 
 
>  <excitation_energy_1> 
5.495 
 
>  <excitation_energy_2> 
6.217 
 
>  <excitation_energy_3> 
6.658 
 
>  <excitation_energy_4> 
6.835 
 
>  <homo_energy> 
-7.655 
 
>  <homo_lumo_gap> 
7.391 
 
>  <logP> 
0.413 
 
>  <lumo_energy> 
-0.264 
 
>  <melting_point> 
26.34 
 
>  <molecular_refractivity> 
19.39 
 
>  <oscillator_strength_1> 
0.0007 
 
>  <oscillator_strength_2> 
0.0008 
 
>  <oscillator_strength_3> 
0.057 
 
>  <oscillator_strength_4> 
0.0114 
 
>  <open_babel_can_smiles> 
CCC(=O)OO 
 
>  <mulliken_charges> 
12 
1   -0.447145 
2   -0.359835 
3   0.642131 
4   -0.493099 
5   -0.393233 
6   -0.251658 
7   0.156761 
8   0.179222 
9   0.163379 
10   0.190684 
11   0.182698 
12   0.430094 
 
>  <lowdin_charges> 
12 
1   -0.434566 
2   -0.291848 
3   0.194152 
4   -0.271619 
5   -0.31654 
6   -0.064687 
7   0.157569 
8   0.16788 
9   0.157057 
10   0.177351 
11   0.17273 
12   0.352523 
 
$$$$ 
 
