PCCDB-ID:  69038 
public computational chemistry database (PCCDB) project, http://pccdb.org 
 
 19 19  0  0  0  0  0  0  0  0999 V2000 
    0.8407    0.1361    0.0333 C   0  0  0  0  0  0  0  0  0  0  0  0 
    4.4794    1.1268    0.4322 C   0  0  0  0  0  0  0  0  0  0  0  0 
    3.0844    1.1641    0.3246 C   0  0  0  0  0  0  0  0  0  0  0  0 
    5.1614   -0.0688    0.3423 C   0  0  0  0  0  0  0  0  0  0  0  0 
    2.3421   -0.0007    0.1531 C   0  0  0  0  0  0  0  0  0  0  0  0 
    4.4732   -1.2867    0.1397 C   0  0  0  0  0  0  0  0  0  0  0  0 
    3.0468   -1.2336    0.0688 C   0  0  0  0  0  0  0  0  0  0  0  0 
    5.1957   -2.4439    0.0846 N   0  0  0  0  0  0  0  0  0  0  0  0 
    2.3036   -2.4726   -0.0807 N   0  0  0  0  0  0  0  0  0  0  0  0 
    1.1232   -2.5089    0.2696 O   0  0  0  0  0  0  0  0  0  0  0  0 
    2.8800   -3.4688   -0.5574 O   0  0  0  0  0  0  0  0  0  0  0  0 
    0.5856    1.1923   -0.0954 H   0  0  0  0  0  0  0  0  0  0  0  0 
    0.3303   -0.2424    0.9232 H   0  0  0  0  0  0  0  0  0  0  0  0 
    0.4375   -0.4256   -0.8136 H   0  0  0  0  0  0  0  0  0  0  0  0 
    5.0340    2.0502    0.5762 H   0  0  0  0  0  0  0  0  0  0  0  0 
    2.5641    2.1153    0.3741 H   0  0  0  0  0  0  0  0  0  0  0  0 
    6.2456   -0.0954    0.4159 H   0  0  0  0  0  0  0  0  0  0  0  0 
    6.1993   -2.3650    0.0160 H   0  0  0  0  0  0  0  0  0  0  0  0 
    4.7477   -3.2586   -0.3103 H   0  0  0  0  0  0  0  0  0  0  0  0 
  1  5  1  0  0  0  0 
  1 13  1  0  0  0  0 
  2 15  1  0  0  0  0 
  3 16  1  0  0  0  0 
  3  2  1  0  0  0  0 
  4 17  1  0  0  0  0 
  4  2  2  0  0  0  0 
  5  3  2  0  0  0  0 
  6  4  1  0  0  0  0 
  7  6  2  0  0  0  0 
  7  5  1  0  0  0  0 
  8  6  1  0  0  0  0 
  9  7  1  0  0  0  0 
  9 10  2  0  0  0  0 
 11  9  2  0  0  0  0 
 12  1  1  0  0  0  0 
 14  1  1  0  0  0  0 
 18  8  1  0  0  0  0 
 19  8  1  0  0  0  0 
M  END 
>  <HBA> 
1 
 
>  <HBD> 
1 
 
>  <TPSA> 
71.84 
 
>  <cid> 
69038 
 
>  <dipole> 
4.21 
 
>  <excitation_energy_1> 
3.17 
 
>  <excitation_energy_2> 
3.758 
 
>  <excitation_energy_3> 
4.388 
 
>  <excitation_energy_4> 
4.515 
 
>  <homo_energy> 
-5.946 
 
>  <homo_lumo_gap> 
3.84 
 
>  <logP> 
2.59 
 
>  <lumo_energy> 
-2.106 
 
>  <melting_point> 
97.11 
 
>  <molecular_refractivity> 
44.63 
 
>  <oscillator_strength_1> 
0.0656 
 
>  <oscillator_strength_2> 
0.0091 
 
>  <oscillator_strength_3> 
0.0035 
 
>  <oscillator_strength_4> 
0.1183 
 
>  <open_babel_can_smiles> 
O=N(=O)c1c(C)cccc1N 
 
>  <mulliken_charges> 
19 
1   -0.501708 
2   -0.107476 
3   -0.213701 
4   -0.195955 
5   0.163345 
6   0.352889 
7   0.192466 
8   -0.813525 
9   0.342549 
10   -0.398393 
11   -0.439335 
12   0.146461 
13   0.18766 
14   0.173162 
15   0.140905 
16   0.130867 
17   0.129078 
18   0.332323 
19   0.37839 
 
>  <lowdin_charges> 
19 
1   -0.438256 
2   -0.122643 
3   -0.198293 
4   -0.200687 
5   0.034788 
6   0.088073 
7   -0.051952 
8   -0.457444 
9   0.309645 
10   -0.241992 
11   -0.28872 
12   0.151047 
13   0.17674 
14   0.169757 
15   0.165049 
16   0.160858 
17   0.156666 
18   0.282602 
19   0.304763 
 
$$$$ 
 
