PCCDB-ID:  69177 
public computational chemistry database (PCCDB) project, http://pccdb.org 
 
 29 29  0  0  0  0  0  0  0  0999 V2000 
    3.5424    1.5448   -1.2194 C   0  0  0  0  0  0  0  0  0  0  0  0 
    3.1017   -2.9915   -1.4498 C   0  0  0  0  0  0  0  0  0  0  0  0 
    9.7761   -1.2605   -3.4967 C   0  0  0  0  0  0  0  0  0  0  0  0 
    3.9292    0.1704   -0.6540 C   0  0  0  0  0  0  0  0  0  0  0  0 
    3.2623   -1.6578   -2.1937 C   0  0  0  0  0  0  0  0  0  0  0  0 
    7.9412   -0.1034   -2.1687 C   0  0  0  0  0  0  0  0  0  0  0  0 
    7.3604   -2.0450   -3.4168 C   0  0  0  0  0  0  0  0  0  0  0  0 
    6.6275    0.0165   -1.7202 C   0  0  0  0  0  0  0  0  0  0  0  0 
    6.0446   -1.9504   -2.9751 C   0  0  0  0  0  0  0  0  0  0  0  0 
    8.3464   -1.1309   -3.0255 C   0  0  0  0  0  0  0  0  0  0  0  0 
    5.6344   -0.9094   -2.1093 C   0  0  0  0  0  0  0  0  0  0  0  0 
    4.3187   -0.8034   -1.6662 N   0  0  0  0  0  0  0  0  0  0  0  0 
    3.2516    2.2273   -0.4116 H   0  0  0  0  0  0  0  0  0  0  0  0 
    2.6963    1.4575   -1.9106 H   0  0  0  0  0  0  0  0  0  0  0  0 
    4.3755    1.9952   -1.7682 H   0  0  0  0  0  0  0  0  0  0  0  0 
    2.2895   -3.5838   -1.8886 H   0  0  0  0  0  0  0  0  0  0  0  0 
    2.8652   -2.8221   -0.3932 H   0  0  0  0  0  0  0  0  0  0  0  0 
    4.0222   -3.5822   -1.4947 H   0  0  0  0  0  0  0  0  0  0  0  0 
   10.3657   -0.3795   -3.2215 H   0  0  0  0  0  0  0  0  0  0  0  0 
    9.8370   -1.3720   -4.5866 H   0  0  0  0  0  0  0  0  0  0  0  0 
   10.2736   -2.1362   -3.0579 H   0  0  0  0  0  0  0  0  0  0  0  0 
    3.0786   -0.2471   -0.1014 H   0  0  0  0  0  0  0  0  0  0  0  0 
    4.7372    0.2741    0.0787 H   0  0  0  0  0  0  0  0  0  0  0  0 
    2.3220   -1.0956   -2.1392 H   0  0  0  0  0  0  0  0  0  0  0  0 
    3.4388   -1.8359   -3.2604 H   0  0  0  0  0  0  0  0  0  0  0  0 
    8.6693    0.6375   -1.8437 H   0  0  0  0  0  0  0  0  0  0  0  0 
    7.6251   -2.8654   -4.0818 H   0  0  0  0  0  0  0  0  0  0  0  0 
    6.3773    0.8542   -1.0798 H   0  0  0  0  0  0  0  0  0  0  0  0 
    5.3371   -2.7040   -3.3010 H   0  0  0  0  0  0  0  0  0  0  0  0 
  1  4  1  0  0  0  0 
  1 13  1  0  0  0  0 
  2 17  1  0  0  0  0 
  3 19  1  0  0  0  0 
  3 21  1  0  0  0  0 
  3 10  1  0  0  0  0 
  4 22  1  0  0  0  0 
  4 23  1  0  0  0  0 
  5 24  1  0  0  0  0 
  5 12  1  0  0  0  0 
  5  2  1  0  0  0  0 
  6 26  1  0  0  0  0 
  6  8  2  0  0  0  0 
  7 10  2  0  0  0  0 
  7  9  1  0  0  0  0 
  8 28  1  0  0  0  0 
  9 11  2  0  0  0  0 
 10  6  1  0  0  0  0 
 11  8  1  0  0  0  0 
 11 12  1  0  0  0  0 
 12  4  1  0  0  0  0 
 14  1  1  0  0  0  0 
 15  1  1  0  0  0  0 
 16  2  1  0  0  0  0 
 18  2  1  0  0  0  0 
 20  3  1  0  0  0  0 
 25  5  1  0  0  0  0 
 27  7  1  0  0  0  0 
 29  9  1  0  0  0  0 
M  END 
>  <HBA> 
1 
 
>  <HBD> 
0 
 
>  <TPSA> 
3.24 
 
>  <cid> 
69177 
 
>  <dipole> 
1.68 
 
>  <excitation_energy_1> 
4.237 
 
>  <excitation_energy_2> 
4.282 
 
>  <excitation_energy_3> 
4.639 
 
>  <excitation_energy_4> 
4.757 
 
>  <homo_energy> 
-4.746 
 
>  <homo_lumo_gap> 
5.108 
 
>  <logP> 
2.841 
 
>  <lumo_energy> 
0.362 
 
>  <melting_point> 
16.17 
 
>  <molecular_refractivity> 
55.23 
 
>  <oscillator_strength_1> 
0.0033 
 
>  <oscillator_strength_2> 
0.0516 
 
>  <oscillator_strength_3> 
0.1385 
 
>  <oscillator_strength_4> 
0.0015 
 
>  <open_babel_can_smiles> 
CCN(c1ccc(cc1)C)CC 
 
>  <mulliken_charges> 
29 
1   -0.442128 
2   -0.441979 
3   -0.530537 
4   -0.148826 
5   -0.14905 
6   -0.195638 
7   -0.19059 
8   -0.192078 
9   -0.191578 
10   0.180594 
11   0.363626 
12   -0.47763 
13   0.140725 
14   0.147713 
15   0.161758 
16   0.140672 
17   0.147859 
18   0.161653 
19   0.148818 
20   0.15258 
21   0.155221 
22   0.143304 
23   0.153214 
24   0.143488 
25   0.152933 
26   0.112938 
27   0.113338 
28   0.119527 
29   0.120074 
 
>  <lowdin_charges> 
29 
1   -0.45955 
2   -0.456957 
3   -0.440635 
4   -0.196078 
5   -0.193543 
6   -0.160103 
7   -0.156464 
8   -0.215136 
9   -0.2137 
10   -0.032909 
11   0.05997 
12   -0.119672 
13   0.151205 
14   0.150791 
15   0.157518 
16   0.151333 
17   0.149115 
18   0.156685 
19   0.153854 
20   0.152563 
21   0.155572 
22   0.146946 
23   0.15035 
24   0.146265 
25   0.147707 
26   0.151303 
27   0.150975 
28   0.155945 
29   0.156649 
 
$$$$ 
 
