PCCDB-ID:  71077 
public computational chemistry database (PCCDB) project, http://pccdb.org 
 
 14 13  0  0  1  0  0  0  0  0999 V2000 
    0.0302   -2.1032   -1.2571 C   0  0  0  0  0  0  0  0  0  0  0  0 
   -0.1563   -0.6609   -0.7711 C   0  0  1  0  0  0  0  0  0  0  0  0 
    0.9109   -0.3287    0.2962 C   0  0  0  0  0  0  0  0  0  0  0  0 
   -0.0674    0.3617   -1.8263 N   0  0  0  0  0  0  0  0  0  0  0  0 
    1.3040   -2.2640   -1.8678 O   0  0  0  0  0  0  0  0  0  0  0  0 
    1.3886   -1.1634    1.0342 O   0  0  0  0  0  0  0  0  0  0  0  0 
    1.2551    0.9630    0.3264 O   0  0  0  0  0  0  0  0  0  0  0  0 
   -0.1085   -2.7974   -0.4196 H   0  0  0  0  0  0  0  0  0  0  0  0 
   -0.7154   -2.3331   -2.0258 H   0  0  0  0  0  0  0  0  0  0  0  0 
   -1.1339   -0.5615   -0.2796 H   0  0  0  0  0  0  0  0  0  0  0  0 
    0.6456    0.0647   -2.4947 H   0  0  0  0  0  0  0  0  0  0  0  0 
   -0.9442    0.4437   -2.3356 H   0  0  0  0  0  0  0  0  0  0  0  0 
    1.9493   -2.3002   -1.1416 H   0  0  0  0  0  0  0  0  0  0  0  0 
    0.7946    1.3614   -0.4563 H   0  0  0  0  0  0  0  0  0  0  0  0 
  1  2  1  0  0  0  0 
  1  8  1  0  0  0  0 
  2 10  1  1  0  0  0 
  2  3  1  0  0  0  0 
  3  7  1  0  0  0  0 
  3  6  2  0  0  0  0 
  4  2  1  0  0  0  0 
  5  1  1  0  0  0  0 
  5 13  1  0  0  0  0 
  9  1  1  0  0  0  0 
 11  4  1  0  0  0  0 
 12  4  1  0  0  0  0 
 14  7  1  0  0  0  0 
M  END 
>  <HBA> 
4 
 
>  <HBD> 
3 
 
>  <TPSA> 
83.55 
 
>  <cid> 
71077 
 
>  <dipole> 
4.06 
 
>  <excitation_energy_1> 
5.451 
 
>  <excitation_energy_2> 
6.177 
 
>  <excitation_energy_3> 
6.51 
 
>  <excitation_energy_4> 
6.922 
 
>  <homo_energy> 
-7.078 
 
>  <homo_lumo_gap> 
7.206 
 
>  <logP> 
-0.909 
 
>  <lumo_energy> 
0.128 
 
>  <melting_point> 
125.45 
 
>  <molecular_refractivity> 
22.18 
 
>  <oscillator_strength_1> 
0.002 
 
>  <oscillator_strength_2> 
0.0101 
 
>  <oscillator_strength_3> 
0.0065 
 
>  <oscillator_strength_4> 
0.0011 
 
>  <open_babel_can_smiles> 
OC[C@@H](C(=O)O)N 
 
>  <mulliken_charges> 
14 
1   -0.042946 
2   -0.10291 
3   0.606502 
4   -0.7675 
5   -0.625266 
6   -0.477076 
7   -0.572941 
8   0.159316 
9   0.144148 
10   0.172789 
11   0.33576 
12   0.322582 
13   0.412128 
14   0.435413 
 
>  <lowdin_charges> 
14 
1   -0.145864 
2   -0.13156 
3   0.178004 
4   -0.54683 
5   -0.470233 
6   -0.269624 
7   -0.346862 
8   0.152608 
9   0.148212 
10   0.167551 
11   0.275451 
12   0.271408 
13   0.354402 
14   0.363338 
 
$$$$ 
 
