PCCDB-ID:  11027 
public computational chemistry database (PCCDB) project, http://pccdb.org 
 
 27 28  0  0  1  0  0  0  0  0999 V2000 
    0.8846   -0.2179    0.7913 C   0  0  0  0  0  0  0  0  0  0  0  0 
    2.0130    1.6009   -0.5374 C   0  0  0  0  0  0  0  0  0  0  0  0 
    1.7429    1.0013    4.8616 C   0  0  0  0  0  0  0  0  0  0  0  0 
    3.9670    1.9239    1.7305 C   0  0  0  0  0  0  0  0  0  0  0  0 
    3.6774   -0.5155    2.3652 C   0  0  0  0  0  0  0  0  0  0  0  0 
    2.2386    0.3885    0.3785 C   0  0  0  0  0  0  0  0  0  0  0  0 
    3.0269    1.2430    4.0474 C   0  0  2  0  0  0  0  0  0  0  0  0 
    2.7730    1.7565    2.6399 C   0  0  2  0  0  0  0  0  0  0  0  0 
    3.7740   -0.0891    3.8368 C   0  0  0  0  0  0  0  0  0  0  0  0 
    3.1124    0.6816    1.6056 C   0  0  2  0  0  0  0  0  0  0  0  0 
    4.3271   -0.7177    4.7124 O   0  0  0  0  0  0  0  0  0  0  0  0 
    0.3155   -0.5369   -0.0896 H   0  0  0  0  0  0  0  0  0  0  0  0 
    0.2786    0.5187    1.3331 H   0  0  0  0  0  0  0  0  0  0  0  0 
    1.0024   -1.0929    1.4402 H   0  0  0  0  0  0  0  0  0  0  0  0 
    1.3601    1.3262   -1.3734 H   0  0  0  0  0  0  0  0  0  0  0  0 
    2.9519    1.9734   -0.9596 H   0  0  0  0  0  0  0  0  0  0  0  0 
    1.5273    2.4279   -0.0037 H   0  0  0  0  0  0  0  0  0  0  0  0 
    1.2258    1.9475    5.0562 H   0  0  0  0  0  0  0  0  0  0  0  0 
    1.9844    0.5339    5.8212 H   0  0  0  0  0  0  0  0  0  0  0  0 
    1.0491    0.3438    4.3242 H   0  0  0  0  0  0  0  0  0  0  0  0 
    4.9651    1.8256    2.1576 H   0  0  0  0  0  0  0  0  0  0  0  0 
    3.9009    2.6813    0.9560 H   0  0  0  0  0  0  0  0  0  0  0  0 
    3.0128   -1.3887    2.3128 H   0  0  0  0  0  0  0  0  0  0  0  0 
    4.6589   -0.8490    2.0069 H   0  0  0  0  0  0  0  0  0  0  0  0 
    2.7744   -0.3675   -0.2162 H   0  0  0  0  0  0  0  0  0  0  0  0 
    3.6825    1.9107    4.6225 H   0  0  0  0  0  0  0  0  0  0  0  0 
    1.9219    2.4148    2.4796 H   0  0  0  0  0  0  0  0  0  0  0  0 
  1 13  1  0  0  0  0 
  1 14  1  0  0  0  0 
  2 17  1  0  0  0  0 
  2  6  1  0  0  0  0 
  3 18  1  0  0  0  0 
  3 19  1  0  0  0  0 
  4 21  1  0  0  0  0 
  4  8  1  0  0  0  0 
  5  9  1  0  0  0  0 
  6  1  1  0  0  0  0 
  7 26  1  1  0  0  0 
  7  3  1  0  0  0  0 
  8 27  1  6  0  0  0 
  8  7  1  0  0  0  0 
  9  7  1  0  0  0  0 
  9 11  2  0  0  0  0 
 10  6  1  6  0  0  0 
 10  4  1  0  0  0  0 
 10  5  1  0  0  0  0 
 10  8  1  0  0  0  0 
 12  1  1  0  0  0  0 
 15  2  1  0  0  0  0 
 16  2  1  0  0  0  0 
 20  3  1  0  0  0  0 
 22  4  1  0  0  0  0 
 23  5  1  0  0  0  0 
 24  5  1  0  0  0  0 
 25  6  1  0  0  0  0 
M  END 
>  <HBA> 
1 
 
>  <HBD> 
0 
 
>  <TPSA> 
17.07 
 
>  <cid> 
11027 
 
>  <dipole> 
2.94 
 
>  <excitation_energy_1> 
4.154 
 
>  <excitation_energy_2> 
5.658 
 
>  <excitation_energy_3> 
6.072 
 
>  <excitation_energy_4> 
6.082 
 
>  <homo_energy> 
-6.422 
 
>  <homo_lumo_gap> 
5.962 
 
>  <logP> 
2.258 
 
>  <lumo_energy> 
-0.46 
 
>  <melting_point> 
56.01 
 
>  <molecular_refractivity> 
45.9 
 
>  <oscillator_strength_1> 
0.0003 
 
>  <oscillator_strength_2> 
0.0001 
 
>  <oscillator_strength_3> 
0.0016 
 
>  <oscillator_strength_4> 
0.0106 
 
>  <open_babel_can_smiles> 
O=C1C[C@]2([C@@H]([C@H]1C)C2)C(C)C 
 
>  <mulliken_charges> 
27 
1   -0.448604 
2   -0.461516 
3   -0.457704 
4   -0.350021 
5   -0.384662 
6   -0.09817 
7   -0.141363 
8   -0.149783 
9   0.426047 
10   0.116497 
11   -0.452446 
12   0.143267 
13   0.143903 
14   0.14255 
15   0.145631 
16   0.149455 
17   0.14304 
18   0.151044 
19   0.168862 
20   0.148186 
21   0.147781 
22   0.154001 
23   0.171611 
24   0.172092 
25   0.128369 
26   0.156284 
27   0.135648 
 
>  <lowdin_charges> 
27 
1   -0.448378 
2   -0.44808 
3   -0.438355 
4   -0.319287 
5   -0.308685 
6   -0.116526 
7   -0.153783 
8   -0.168642 
9   0.162008 
10   -0.016363 
11   -0.228165 
12   0.150345 
13   0.148827 
14   0.147341 
15   0.153234 
16   0.151679 
17   0.147222 
18   0.153901 
19   0.163198 
20   0.151605 
21   0.155072 
22   0.165351 
23   0.170126 
24   0.168631 
25   0.143014 
26   0.160999 
27   0.153712 
 
$$$$ 
 
