PCCDB-ID:  70906 
public computational chemistry database (PCCDB) project, http://pccdb.org 
 
 28 27  0  0  0  0  0  0  0  0999 V2000 
    2.8316   -1.2859    0.6368 C   0  0  0  0  0  0  0  0  0  0  0  0 
    2.8165    1.9915   -3.4301 C   0  0  0  0  0  0  0  0  0  0  0  0 
    6.4638    1.4362   -0.6109 C   0  0  0  0  0  0  0  0  0  0  0  0 
    2.7011   -0.9696   -2.4740 C   0  0  0  0  0  0  0  0  0  0  0  0 
    2.2800   -0.0804   -0.1332 C   0  0  0  0  0  0  0  0  0  0  0  0 
    2.2750    1.4939   -2.0859 C   0  0  0  0  0  0  0  0  0  0  0  0 
    4.9395    1.3853   -0.5085 C   0  0  0  0  0  0  0  0  0  0  0  0 
    2.9390    0.2112   -1.5158 C   0  0  0  0  0  0  0  0  0  0  0  0 
    4.4049    0.4011   -1.4491 N   0  0  0  0  0  0  0  0  0  0  0  0 
    2.3456   -1.3711    1.6152 H   0  0  0  0  0  0  0  0  0  0  0  0 
    3.9097   -1.1951    0.8159 H   0  0  0  0  0  0  0  0  0  0  0  0 
    2.6608   -2.2292    0.1065 H   0  0  0  0  0  0  0  0  0  0  0  0 
    2.3489    2.9455   -3.7004 H   0  0  0  0  0  0  0  0  0  0  0  0 
    2.6093    1.2856   -4.2417 H   0  0  0  0  0  0  0  0  0  0  0  0 
    3.8999    2.1358   -3.3871 H   0  0  0  0  0  0  0  0  0  0  0  0 
    6.8759    2.1935    0.0654 H   0  0  0  0  0  0  0  0  0  0  0  0 
    6.7739    1.6720   -1.6341 H   0  0  0  0  0  0  0  0  0  0  0  0 
    6.9102    0.4710   -0.3380 H   0  0  0  0  0  0  0  0  0  0  0  0 
    1.6292   -1.1424   -2.6238 H   0  0  0  0  0  0  0  0  0  0  0  0 
    3.1349   -1.8972   -2.0819 H   0  0  0  0  0  0  0  0  0  0  0  0 
    3.1628   -0.7780   -3.4464 H   0  0  0  0  0  0  0  0  0  0  0  0 
    2.3769    0.8148    0.4953 H   0  0  0  0  0  0  0  0  0  0  0  0 
    1.2008   -0.2168   -0.2884 H   0  0  0  0  0  0  0  0  0  0  0  0 
    1.1972    1.3000   -2.1721 H   0  0  0  0  0  0  0  0  0  0  0  0 
    2.3682    2.2982   -1.3437 H   0  0  0  0  0  0  0  0  0  0  0  0 
    4.5295    2.3686   -0.7675 H   0  0  0  0  0  0  0  0  0  0  0  0 
    4.6546    1.1978    0.5432 H   0  0  0  0  0  0  0  0  0  0  0  0 
    4.8447   -0.4997   -1.2672 H   0  0  0  0  0  0  0  0  0  0  0  0 
  1 11  1  0  0  0  0 
  1 10  1  0  0  0  0 
  2 15  1  0  0  0  0 
  2  6  1  0  0  0  0 
  3  7  1  0  0  0  0 
  3 18  1  0  0  0  0 
  3 16  1  0  0  0  0 
  4 20  1  0  0  0  0 
  4  8  1  0  0  0  0 
  5 22  1  0  0  0  0 
  5  1  1  0  0  0  0 
  6  8  1  0  0  0  0 
  6 25  1  0  0  0  0 
  7 27  1  0  0  0  0 
  8  9  1  0  0  0  0 
  8  5  1  0  0  0  0 
  9 28  1  0  0  0  0 
  9  7  1  0  0  0  0 
 12  1  1  0  0  0  0 
 13  2  1  0  0  0  0 
 14  2  1  0  0  0  0 
 17  3  1  0  0  0  0 
 19  4  1  0  0  0  0 
 21  4  1  0  0  0  0 
 23  5  1  0  0  0  0 
 24  6  1  0  0  0  0 
 26  7  1  0  0  0  0 
M  END 
>  <HBA> 
1 
 
>  <HBD> 
1 
 
>  <TPSA> 
12.03 
 
>  <cid> 
70906 
 
>  <dipole> 
0.86 
 
>  <excitation_energy_1> 
5.236 
 
>  <excitation_energy_2> 
5.612 
 
>  <excitation_energy_3> 
5.814 
 
>  <excitation_energy_4> 
5.855 
 
>  <homo_energy> 
-5.704 
 
>  <homo_lumo_gap> 
7.641 
 
>  <logP> 
2.566 
 
>  <lumo_energy> 
1.937 
 
>  <melting_point> 
10.31 
 
>  <molecular_refractivity> 
43.41 
 
>  <oscillator_strength_1> 
0.0043 
 
>  <oscillator_strength_2> 
0.0047 
 
>  <oscillator_strength_3> 
0.0186 
 
>  <oscillator_strength_4> 
0.0098 
 
>  <open_babel_can_smiles> 
CCNC(CC)(CC)C 
 
>  <mulliken_charges> 
28 
1   -0.458929 
2   -0.445626 
3   -0.450825 
4   -0.4687 
5   -0.255376 
6   -0.257008 
7   -0.113066 
8   0.227826 
9   -0.567215 
10   0.144942 
11   0.138213 
12   0.145788 
13   0.13336 
14   0.140308 
15   0.163043 
16   0.141892 
17   0.157288 
18   0.136365 
19   0.138801 
20   0.135191 
21   0.159062 
22   0.130548 
23   0.126508 
24   0.126318 
25   0.127202 
26   0.141868 
27   0.114938 
28   0.287282 
 
>  <lowdin_charges> 
28 
1   -0.449047 
2   -0.446744 
3   -0.447371 
4   -0.447407 
5   -0.288537 
6   -0.276971 
7   -0.199588 
8   0.063136 
9   -0.364531 
10   0.15217 
11   0.142023 
12   0.147363 
13   0.14623 
14   0.146825 
15   0.155325 
16   0.152191 
17   0.153948 
18   0.143524 
19   0.147831 
20   0.145287 
21   0.157105 
22   0.141366 
23   0.140367 
24   0.13956 
25   0.139483 
26   0.141552 
27   0.115576 
28   0.249333 
 
$$$$ 
 
