PCCDB-ID:  14031 
public computational chemistry database (PCCDB) project, http://pccdb.org 
 
 24 23  0  0  0  0  0  0  0  0999 V2000 
    1.4477    3.3444   -0.6495 C   0  0  0  0  0  0  0  0  0  0  0  0 
    4.5325    0.9143   -2.4733 C   0  0  0  0  0  0  0  0  0  0  0  0 
    7.2599    2.7808    1.4943 C   0  0  0  0  0  0  0  0  0  0  0  0 
    6.0858    5.2261   -1.5145 C   0  0  0  0  0  0  0  0  0  0  0  0 
    4.0104    4.7560    0.6592 O   0  0  0  0  0  0  0  0  0  0  0  0 
    2.5125    2.5183   -1.1628 O   0  0  0  0  0  0  0  0  0  0  0  0 
    3.8473    0.4175   -1.3062 O   0  0  0  0  0  0  0  0  0  0  0  0 
    6.1973    3.7480    1.5042 O   0  0  0  0  0  0  0  0  0  0  0  0 
    5.8225    3.8942   -1.0328 O   0  0  0  0  0  0  0  0  0  0  0  0 
    4.6133    2.2014    0.3301 O   0  0  0  0  0  0  0  0  0  0  0  0 
    3.1842    1.3797   -0.1842 P   0  0  0  0  0  0  0  0  0  0  0  0 
    5.0474    3.7405    0.3818 P   0  0  0  0  0  0  0  0  0  0  0  0 
    0.8370    3.6371   -1.5066 H   0  0  0  0  0  0  0  0  0  0  0  0 
    1.8755    4.2240   -0.1646 H   0  0  0  0  0  0  0  0  0  0  0  0 
    0.8244    2.7886    0.0616 H   0  0  0  0  0  0  0  0  0  0  0  0 
    4.9810    0.0447   -2.9572 H   0  0  0  0  0  0  0  0  0  0  0  0 
    5.3080    1.6307   -2.1899 H   0  0  0  0  0  0  0  0  0  0  0  0 
    3.8206    1.3925   -3.1508 H   0  0  0  0  0  0  0  0  0  0  0  0 
    7.9361    3.0660    2.3018 H   0  0  0  0  0  0  0  0  0  0  0  0 
    7.7958    2.7984    0.5396 H   0  0  0  0  0  0  0  0  0  0  0  0 
    6.8641    1.7777    1.6761 H   0  0  0  0  0  0  0  0  0  0  0  0 
    6.4953    5.1127   -2.5197 H   0  0  0  0  0  0  0  0  0  0  0  0 
    6.8177    5.7299   -0.8741 H   0  0  0  0  0  0  0  0  0  0  0  0 
    5.1617    5.8083   -1.5436 H   0  0  0  0  0  0  0  0  0  0  0  0 
  1 14  1  0  0  0  0 
  1 15  1  0  0  0  0 
  2 17  1  0  0  0  0 
  2  7  1  0  0  0  0 
  3  8  1  0  0  0  0 
  3 21  1  0  0  0  0 
  3 19  1  0  0  0  0 
  4  9  1  0  0  0  0 
  4 23  1  0  0  0  0 
  6  1  1  0  0  0  0 
  6 11  1  0  0  0  0 
  7 11  1  0  0  0  0 
  9 12  1  0  0  0  0 
 10 12  1  0  0  0  0 
 11 10  1  0  0  0  0 
 12  5  2  0  0  0  0 
 12  8  1  0  0  0  0 
 13  1  1  0  0  0  0 
 16  2  1  0  0  0  0 
 18  2  1  0  0  0  0 
 20  3  1  0  0  0  0 
 22  4  1  0  0  0  0 
 24  4  1  0  0  0  0 
M  END 
>  <HBA> 
6 
 
>  <HBD> 
0 
 
>  <TPSA> 
86.62 
 
>  <cid> 
14031 
 
>  <dipole> 
3.06 
 
>  <excitation_energy_1> 
6.624 
 
>  <excitation_energy_2> 
6.669 
 
>  <excitation_energy_3> 
6.965 
 
>  <excitation_energy_4> 
7.093 
 
>  <homo_energy> 
-7.255 
 
>  <homo_lumo_gap> 
7.815 
 
>  <logP> 
1.924 
 
>  <lumo_energy> 
0.561 
 
>  <melting_point> 
-52.2 
 
>  <molecular_refractivity> 
43.41 
 
>  <oscillator_strength_1> 
0.0868 
 
>  <oscillator_strength_2> 
0.1203 
 
>  <oscillator_strength_3> 
0.0139 
 
>  <oscillator_strength_4> 
0.0169 
 
>  <open_babel_can_smiles> 
COP(OP(=O)(OC)OC)OC 
 
>  <mulliken_charges> 
24 
1   -0.236628 
2   -0.238825 
3   -0.224249 
4   -0.221416 
5   -0.568482 
6   -0.574294 
7   -0.522651 
8   -0.499771 
9   -0.544106 
10   -0.668841 
11   0.971298 
12   1.254135 
13   0.162088 
14   0.21188 
15   0.152344 
16   0.163604 
17   0.184797 
18   0.170713 
19   0.17197 
20   0.161973 
21   0.176215 
22   0.166488 
23   0.16548 
24   0.186276 
 
>  <lowdin_charges> 
24 
1   -0.286788 
2   -0.287764 
3   -0.270679 
4   -0.270726 
5   -0.585371 
6   -0.421972 
7   -0.391933 
8   -0.38316 
9   -0.405782 
10   -0.565878 
11   0.804907 
12   1.129394 
13   0.157955 
14   0.177038 
15   0.151528 
16   0.160219 
17   0.165128 
18   0.160259 
19   0.1642 
20   0.153829 
21   0.160233 
22   0.159671 
23   0.156781 
24   0.168908 
 
$$$$ 
 
