PCCDB-ID:  44787 
public computational chemistry database (PCCDB) project, http://pccdb.org 
 
 26 25  0  0  0  0  0  0  0  0999 V2000 
    1.0548   -0.5918   -0.3792 C   0  0  0  0  0  0  0  0  0  0  0  0 
    0.4172   -1.7608    0.3858 C   0  0  0  0  0  0  0  0  0  0  0  0 
    1.3274   -0.8655   -1.8689 C   0  0  0  0  0  0  0  0  0  0  0  0 
    0.2606   -1.4777    1.8863 C   0  0  0  0  0  0  0  0  0  0  0  0 
    0.0933   -1.1495   -2.7412 C   0  0  0  0  0  0  0  0  0  0  0  0 
   -0.4317   -2.5998    2.6673 C   0  0  0  0  0  0  0  0  0  0  0  0 
   -0.9647   -0.0403   -2.7859 C   0  0  0  0  0  0  0  0  0  0  0  0 
    0.3648   -3.8343    2.6549 N   0  0  0  0  0  0  0  0  0  0  0  0 
   -0.4261    1.5487   -3.5587 S   0  0  0  0  0  0  0  0  0  0  0  0 
    2.0093   -0.3374    0.1021 H   0  0  0  0  0  0  0  0  0  0  0  0 
    0.4214    0.3008   -0.2671 H   0  0  0  0  0  0  0  0  0  0  0  0 
    1.0401   -2.6556    0.2440 H   0  0  0  0  0  0  0  0  0  0  0  0 
   -0.5696   -1.9952   -0.0404 H   0  0  0  0  0  0  0  0  0  0  0  0 
    2.0071   -1.7249   -1.9518 H   0  0  0  0  0  0  0  0  0  0  0  0 
    1.8744   -0.0138   -2.2944 H   0  0  0  0  0  0  0  0  0  0  0  0 
   -0.3202   -0.5535    2.0197 H   0  0  0  0  0  0  0  0  0  0  0  0 
    1.2494   -1.3036    2.3301 H   0  0  0  0  0  0  0  0  0  0  0  0 
   -0.4069   -2.0619   -2.3857 H   0  0  0  0  0  0  0  0  0  0  0  0 
    0.4255   -1.3584   -3.7654 H   0  0  0  0  0  0  0  0  0  0  0  0 
   -1.4592   -2.7284    2.2761 H   0  0  0  0  0  0  0  0  0  0  0  0 
   -0.5340   -2.2884    3.7139 H   0  0  0  0  0  0  0  0  0  0  0  0 
   -1.3701    0.1747   -1.7927 H   0  0  0  0  0  0  0  0  0  0  0  0 
   -1.8067   -0.3567   -3.4097 H   0  0  0  0  0  0  0  0  0  0  0  0 
    0.3127   -4.2699    1.7356 H   0  0  0  0  0  0  0  0  0  0  0  0 
   -0.0400   -4.5086    3.3023 H   0  0  0  0  0  0  0  0  0  0  0  0 
    0.4410    1.9272   -2.5956 H   0  0  0  0  0  0  0  0  0  0  0  0 
  1 11  1  0  0  0  0 
  1 10  1  0  0  0  0 
  1  2  1  0  0  0  0 
  2  4  1  0  0  0  0 
  3  1  1  0  0  0  0 
  4 16  1  0  0  0  0 
  4 17  1  0  0  0  0 
  4  6  1  0  0  0  0 
  5 18  1  0  0  0  0 
  5  3  1  0  0  0  0 
  6 21  1  0  0  0  0 
  7  5  1  0  0  0  0 
  7 22  1  0  0  0  0 
  8  6  1  0  0  0  0 
  8 25  1  0  0  0  0 
  9  7  1  0  0  0  0 
  9 26  1  0  0  0  0 
 12  2  1  0  0  0  0 
 13  2  1  0  0  0  0 
 14  3  1  0  0  0  0 
 15  3  1  0  0  0  0 
 19  5  1  0  0  0  0 
 20  6  1  0  0  0  0 
 23  7  1  0  0  0  0 
 24  8  1  0  0  0  0 
M  END 
>  <HBA> 
2 
 
>  <HBD> 
2 
 
>  <TPSA> 
64.82 
 
>  <cid> 
44787 
 
>  <dipole> 
2.31 
 
>  <excitation_energy_1> 
5.285 
 
>  <excitation_energy_2> 
5.617 
 
>  <excitation_energy_3> 
5.729 
 
>  <excitation_energy_4> 
6.021 
 
>  <homo_energy> 
-6.332 
 
>  <homo_lumo_gap> 
7.124 
 
>  <logP> 
2.526 
 
>  <lumo_energy> 
0.792 
 
>  <melting_point> 
47.28 
 
>  <molecular_refractivity> 
46.4 
 
>  <oscillator_strength_1> 
0.0146 
 
>  <oscillator_strength_2> 
0.0085 
 
>  <oscillator_strength_3> 
0.015 
 
>  <oscillator_strength_4> 
0.0123 
 
>  <open_babel_can_smiles> 
NCCCCCCCS 
 
>  <mulliken_charges> 
26 
1   -0.260024 
2   -0.263258 
3   -0.265611 
4   -0.237763 
5   -0.245578 
6   -0.142277 
7   -0.41777 
8   -0.71599 
9   -0.0904 
10   0.13633 
11   0.126215 
12   0.134816 
13   0.124517 
14   0.135099 
15   0.136671 
16   0.123282 
17   0.143645 
18   0.138756 
19   0.150556 
20   0.109021 
21   0.137841 
22   0.178079 
23   0.177956 
24   0.295374 
25   0.29621 
26   0.0943 
 
>  <lowdin_charges> 
26 
1   -0.278532 
2   -0.281295 
3   -0.282238 
4   -0.27883 
5   -0.282225 
6   -0.201301 
7   -0.372942 
8   -0.563325 
9   -0.09574 
10   0.145559 
11   0.135721 
12   0.140769 
13   0.134007 
14   0.14552 
15   0.146094 
16   0.139596 
17   0.14726 
18   0.145523 
19   0.152389 
20   0.113246 
21   0.142428 
22   0.158402 
23   0.169839 
24   0.250707 
25   0.256372 
26   0.112995 
 
$$$$ 
 
