PCCDB-ID:  54389 
public computational chemistry database (PCCDB) project, http://pccdb.org 
 
 27 28  0  0  1  0  0  0  0  0999 V2000 
    1.3853   -1.4022   -0.4438 C   0  0  0  0  0  0  0  0  0  0  0  0 
    0.2840   -1.7711    0.5784 C   0  0  0  0  0  0  0  0  0  0  0  0 
    2.2697   -0.2184   -0.0321 C   0  0  0  0  0  0  0  0  0  0  0  0 
   -1.1388   -1.5783    0.0380 C   0  0  0  0  0  0  0  0  0  0  0  0 
    1.5139    1.0629    0.3499 C   0  0  0  0  0  0  0  0  0  0  0  0 
   -1.6665    0.9500    0.7866 C   0  0  0  0  0  0  0  0  0  0  0  0 
   -1.6677   -0.1707   -0.2281 C   0  0  1  0  0  0  0  0  0  0  0  0 
   -0.9677    1.1491   -0.5431 C   0  0  2  0  0  0  0  0  0  0  0  0 
    0.5048    1.5777   -0.6976 C   0  0  1  0  0  0  0  0  0  0  0  0 
    0.5991    3.0567   -0.7113 N   0  0  0  0  0  0  0  0  0  0  0  0 
    0.9152   -1.1784   -1.4108 H   0  0  0  0  0  0  0  0  0  0  0  0 
    2.0327   -2.2694   -0.6261 H   0  0  0  0  0  0  0  0  0  0  0  0 
    0.4138   -1.2049    1.5098 H   0  0  0  0  0  0  0  0  0  0  0  0 
    0.3843   -2.8253    0.8646 H   0  0  0  0  0  0  0  0  0  0  0  0 
    2.9593    0.0091   -0.8570 H   0  0  0  0  0  0  0  0  0  0  0  0 
    2.9003   -0.5131    0.8187 H   0  0  0  0  0  0  0  0  0  0  0  0 
   -1.8486   -2.0530    0.7314 H   0  0  0  0  0  0  0  0  0  0  0  0 
   -1.2172   -2.1483   -0.8997 H   0  0  0  0  0  0  0  0  0  0  0  0 
    2.2511    1.8609    0.4912 H   0  0  0  0  0  0  0  0  0  0  0  0 
    1.0198    0.9361    1.3206 H   0  0  0  0  0  0  0  0  0  0  0  0 
   -1.0367    0.8138    1.6629 H   0  0  0  0  0  0  0  0  0  0  0  0 
   -2.5909    1.4832    0.9981 H   0  0  0  0  0  0  0  0  0  0  0  0 
   -2.6084   -0.2417   -0.7759 H   0  0  0  0  0  0  0  0  0  0  0  0 
   -1.5642    1.7247   -1.2540 H   0  0  0  0  0  0  0  0  0  0  0  0 
    0.8463    1.2541   -1.6913 H   0  0  0  0  0  0  0  0  0  0  0  0 
    0.2524    3.4068    0.1842 H   0  0  0  0  0  0  0  0  0  0  0  0 
   -0.0488    3.4278   -1.4079 H   0  0  0  0  0  0  0  0  0  0  0  0 
  1  3  1  0  0  0  0 
  1  2  1  0  0  0  0 
  2 14  1  0  0  0  0 
  2 13  1  0  0  0  0 
  3  5  1  0  0  0  0 
  3 16  1  0  0  0  0 
  4  2  1  0  0  0  0 
  4 17  1  0  0  0  0 
  5 19  1  0  0  0  0 
  5 20  1  0  0  0  0 
  6 22  1  0  0  0  0 
  6 21  1  0  0  0  0 
  7 23  1  6  0  0  0 
  7  4  1  0  0  0  0 
  7  6  1  0  0  0  0 
  8 24  1  6  0  0  0 
  8  7  1  0  0  0  0 
  8  6  1  0  0  0  0 
  9 25  1  6  0  0  0 
  9  8  1  0  0  0  0 
  9  5  1  0  0  0  0 
 10  9  1  0  0  0  0 
 10 26  1  0  0  0  0 
 11  1  1  0  0  0  0 
 12  1  1  0  0  0  0 
 15  3  1  0  0  0  0 
 18  4  1  0  0  0  0 
 27 10  1  0  0  0  0 
M  END 
>  <HBA> 
1 
 
>  <HBD> 
1 
 
>  <TPSA> 
26.02 
 
>  <cid> 
54389 
 
>  <dipole> 
1.34 
 
>  <excitation_energy_1> 
5.553 
 
>  <excitation_energy_2> 
5.993 
 
>  <excitation_energy_3> 
6.109 
 
>  <excitation_energy_4> 
6.288 
 
>  <homo_energy> 
-6.136 
 
>  <homo_lumo_gap> 
8.172 
 
>  <logP> 
2.614 
 
>  <lumo_energy> 
2.035 
 
>  <melting_point> 
70.85 
 
>  <molecular_refractivity> 
43.86 
 
>  <oscillator_strength_1> 
0.0165 
 
>  <oscillator_strength_2> 
0.0123 
 
>  <oscillator_strength_3> 
0.0045 
 
>  <oscillator_strength_4> 
0.0101 
 
>  <open_babel_can_smiles> 
N[C@H]1CCCCC[C@@H]2[C@H]1C2 
 
>  <mulliken_charges> 
27 
1   -0.258983 
2   -0.264406 
3   -0.269563 
4   -0.270335 
5   -0.2762 
6   -0.335497 
7   -0.105945 
8   -0.127515 
9   0.026282 
10   -0.712823 
11   0.140094 
12   0.130907 
13   0.133344 
14   0.132707 
15   0.133139 
16   0.12828 
17   0.132193 
18   0.131734 
19   0.155326 
20   0.127411 
21   0.149528 
22   0.142534 
23   0.130033 
24   0.118272 
25   0.132325 
26   0.289583 
27   0.287575 
 
>  <lowdin_charges> 
27 
1   -0.283289 
2   -0.281568 
3   -0.276065 
4   -0.269769 
5   -0.289965 
6   -0.333467 
7   -0.15851 
8   -0.177366 
9   -0.059469 
10   -0.550983 
11   0.142232 
12   0.144166 
13   0.140075 
14   0.14452 
15   0.142537 
16   0.140585 
17   0.145712 
18   0.141572 
19   0.159046 
20   0.13746 
21   0.154753 
22   0.153189 
23   0.150739 
24   0.146317 
25   0.139156 
26   0.250207 
27   0.248186 
 
$$$$ 
 
