PCCDB-ID:  16670 
public computational chemistry database (PCCDB) project, http://pccdb.org 
 
 32 31  0  0  0  0  0  0  0  0999 V2000 
    4.4125    2.2209    3.4404 C   0  0  0  0  0  0  0  0  0  0  0  0 
    3.9858   -4.7955    3.8532 C   0  0  0  0  0  0  0  0  0  0  0  0 
    4.4687    1.7060    1.9984 C   0  0  0  0  0  0  0  0  0  0  0  0 
    5.1016   -5.6916    3.2862 C   0  0  0  0  0  0  0  0  0  0  0  0 
    4.7846    0.2075    1.9030 C   0  0  0  0  0  0  0  0  0  0  0  0 
    4.8433   -0.3069    0.4574 C   0  0  0  0  0  0  0  0  0  0  0  0 
    5.0879   -1.8186    0.3193 C   0  0  0  0  0  0  0  0  0  0  0  0 
    6.4843   -2.2763    0.7628 C   0  0  0  0  0  0  0  0  0  0  0  0 
    6.7394   -3.7668    0.5561 C   0  0  0  0  0  0  0  0  0  0  0  0 
    6.1728   -4.8700    2.5966 C   0  0  0  0  0  0  0  0  0  0  0  0 
    7.1975   -4.4849    3.1185 O   0  0  0  0  0  0  0  0  0  0  0  0 
    5.8203   -4.5871    1.3189 O   0  0  0  0  0  0  0  0  0  0  0  0 
    4.1827    3.2920    3.4748 H   0  0  0  0  0  0  0  0  0  0  0  0 
    5.3705    2.0685    3.9523 H   0  0  0  0  0  0  0  0  0  0  0  0 
    3.6419    1.6962    4.0186 H   0  0  0  0  0  0  0  0  0  0  0  0 
    3.2422   -5.4014    4.3812 H   0  0  0  0  0  0  0  0  0  0  0  0 
    3.4753   -4.2515    3.0519 H   0  0  0  0  0  0  0  0  0  0  0  0 
    4.3939   -4.0657    4.5602 H   0  0  0  0  0  0  0  0  0  0  0  0 
    5.2258    2.2721    1.4370 H   0  0  0  0  0  0  0  0  0  0  0  0 
    3.5097    1.9059    1.4999 H   0  0  0  0  0  0  0  0  0  0  0  0 
    4.6794   -6.4070    2.5731 H   0  0  0  0  0  0  0  0  0  0  0  0 
    5.5879   -6.2459    4.0938 H   0  0  0  0  0  0  0  0  0  0  0  0 
    4.0217   -0.3597    2.4575 H   0  0  0  0  0  0  0  0  0  0  0  0 
    5.7383    0.0115    2.4119 H   0  0  0  0  0  0  0  0  0  0  0  0 
    5.6266    0.2389   -0.0900 H   0  0  0  0  0  0  0  0  0  0  0  0 
    3.8967   -0.0586   -0.0432 H   0  0  0  0  0  0  0  0  0  0  0  0 
    4.9407   -2.1054   -0.7321 H   0  0  0  0  0  0  0  0  0  0  0  0 
    4.3282   -2.3666    0.8927 H   0  0  0  0  0  0  0  0  0  0  0  0 
    6.6616   -2.0391    1.8177 H   0  0  0  0  0  0  0  0  0  0  0  0 
    7.2488   -1.7322    0.1885 H   0  0  0  0  0  0  0  0  0  0  0  0 
    7.7608   -4.0308    0.8403 H   0  0  0  0  0  0  0  0  0  0  0  0 
    6.5613   -4.0582   -0.4833 H   0  0  0  0  0  0  0  0  0  0  0  0 
  1 13  1  0  0  0  0 
  1 14  1  0  0  0  0 
  1 15  1  0  0  0  0 
  2 16  1  0  0  0  0 
  2 18  1  0  0  0  0 
  3  1  1  0  0  0  0 
  4  2  1  0  0  0  0 
  4 22  1  0  0  0  0 
  5  3  1  0  0  0  0 
  5 24  1  0  0  0  0 
  5 23  1  0  0  0  0 
  6  5  1  0  0  0  0 
  7  6  1  0  0  0  0 
  7  8  1  0  0  0  0 
  7 28  1  0  0  0  0 
  8 29  1  0  0  0  0 
  9  8  1  0  0  0  0 
  9 31  1  0  0  0  0 
  9 12  1  0  0  0  0 
 10 11  2  0  0  0  0 
 10  4  1  0  0  0  0 
 12 10  1  0  0  0  0 
 17  2  1  0  0  0  0 
 19  3  1  0  0  0  0 
 20  3  1  0  0  0  0 
 21  4  1  0  0  0  0 
 25  6  1  0  0  0  0 
 26  6  1  0  0  0  0 
 27  7  1  0  0  0  0 
 30  8  1  0  0  0  0 
 32  9  1  0  0  0  0 
M  END 
>  <HBA> 
2 
 
>  <HBD> 
0 
 
>  <TPSA> 
26.3 
 
>  <cid> 
16670 
 
>  <dipole> 
1.79 
 
>  <excitation_energy_1> 
5.696 
 
>  <excitation_energy_2> 
6.935 
 
>  <excitation_energy_3> 
7.267 
 
>  <excitation_energy_4> 
7.342 
 
>  <homo_energy> 
-7.178 
 
>  <homo_lumo_gap> 
7.576 
 
>  <logP> 
2.91 
 
>  <lumo_energy> 
0.397 
 
>  <melting_point> 
-16.78 
 
>  <molecular_refractivity> 
51.47 
 
>  <oscillator_strength_1> 
0.0017 
 
>  <oscillator_strength_2> 
0.0077 
 
>  <oscillator_strength_3> 
0.0052 
 
>  <oscillator_strength_4> 
0.0339 
 
>  <open_babel_can_smiles> 
CCCCCCCOC(=O)CC 
 
>  <mulliken_charges> 
32 
1   -0.441848 
2   -0.45674 
3   -0.246994 
4   -0.325187 
5   -0.249001 
6   -0.255609 
7   -0.25616 
8   -0.283228 
9   -0.052346 
10   0.604366 
11   -0.475798 
12   -0.457943 
13   0.141587 
14   0.142718 
15   0.141026 
16   0.15603 
17   0.163103 
18   0.16414 
19   0.130421 
20   0.129641 
21   0.161749 
22   0.16791 
23   0.125831 
24   0.134506 
25   0.126373 
26   0.12872 
27   0.125665 
28   0.141132 
29   0.165561 
30   0.135139 
31   0.168707 
32   0.146529 
 
>  <lowdin_charges> 
32 
1   -0.444053 
2   -0.440577 
3   -0.273047 
4   -0.295236 
5   -0.278644 
6   -0.276179 
7   -0.277464 
8   -0.288808 
9   -0.130484 
10   0.199002 
11   -0.271382 
12   -0.199918 
13   0.14758 
14   0.146819 
15   0.147292 
16   0.157915 
17   0.156912 
18   0.158847 
19   0.140177 
20   0.138195 
21   0.163827 
22   0.167059 
23   0.138205 
24   0.139921 
25   0.138385 
26   0.141176 
27   0.138492 
28   0.144396 
29   0.155096 
30   0.14946 
31   0.158812 
32   0.148222 
 
$$$$ 
 
