PCCDB-ID:  53145 
public computational chemistry database (PCCDB) project, http://pccdb.org 
 
 14 13  0  0  0  0  0  0  0  0999 V2000 
    1.1199    0.1717    0.4557 C   0  0  0  0  0  0  0  0  0  0  0  0 
    2.4153   -0.1087   -0.3104 C   0  0  0  0  0  0  0  0  0  0  0  0 
    2.3605   -1.3564   -2.4468 C   0  0  0  0  0  0  0  0  0  0  0  0 
    2.3711   -2.6013   -0.4333 N   0  0  0  0  0  0  0  0  0  0  0  0 
    2.3795   -1.3515   -1.0758 N   0  0  0  0  0  0  0  0  0  0  0  0 
    2.3601   -0.3579   -3.1464 O   0  0  0  0  0  0  0  0  0  0  0  0 
    1.2137    1.1007    1.0285 H   0  0  0  0  0  0  0  0  0  0  0  0 
    0.8847   -0.6293    1.1673 H   0  0  0  0  0  0  0  0  0  0  0  0 
    0.2770    0.2774   -0.2348 H   0  0  0  0  0  0  0  0  0  0  0  0 
    3.2683   -0.1503    0.3825 H   0  0  0  0  0  0  0  0  0  0  0  0 
    2.6096    0.6826   -1.0383 H   0  0  0  0  0  0  0  0  0  0  0  0 
    2.3454   -2.3900   -2.8345 H   0  0  0  0  0  0  0  0  0  0  0  0 
    1.5487   -2.6726    0.1655 H   0  0  0  0  0  0  0  0  0  0  0  0 
    3.1959   -2.6777    0.1635 H   0  0  0  0  0  0  0  0  0  0  0  0 
  1  7  1  0  0  0  0 
  1  8  1  0  0  0  0 
  2 10  1  0  0  0  0 
  2  1  1  0  0  0  0 
  3  5  1  0  0  0  0 
  4 14  1  0  0  0  0 
  4 13  1  0  0  0  0 
  5  4  1  0  0  0  0 
  5  2  1  0  0  0  0 
  6  3  2  0  0  0  0 
  9  1  1  0  0  0  0 
 11  2  1  0  0  0  0 
 12  3  1  0  0  0  0 
M  END 
>  <HBA> 
3 
 
>  <HBD> 
1 
 
>  <TPSA> 
46.33 
 
>  <cid> 
53145 
 
>  <dipole> 
4.4 
 
>  <excitation_energy_1> 
5.614 
 
>  <excitation_energy_2> 
5.958 
 
>  <excitation_energy_3> 
6.247 
 
>  <excitation_energy_4> 
6.678 
 
>  <homo_energy> 
-6.713 
 
>  <homo_lumo_gap> 
7.597 
 
>  <logP> 
0.675 
 
>  <lumo_energy> 
0.884 
 
>  <melting_point> 
53.7 
 
>  <molecular_refractivity> 
22.73 
 
>  <oscillator_strength_1> 
0.0011 
 
>  <oscillator_strength_2> 
0.0184 
 
>  <oscillator_strength_3> 
0.0066 
 
>  <oscillator_strength_4> 
0.0634 
 
>  <open_babel_can_smiles> 
CCN(C=O)N 
 
>  <mulliken_charges> 
14 
1   -0.448702 
2   -0.142611 
3   0.371125 
4   -0.57365 
5   -0.287416 
6   -0.4696 
7   0.157012 
8   0.133422 
9   0.169531 
10   0.137525 
11   0.192543 
12   0.123373 
13   0.321148 
14   0.3163 
 
>  <lowdin_charges> 
14 
1   -0.454042 
2   -0.207683 
3   0.047637 
4   -0.451764 
5   -0.071331 
6   -0.301305 
7   0.160153 
8   0.14281 
9   0.162029 
10   0.140566 
11   0.17835 
12   0.131578 
13   0.262016 
14   0.260985 
 
$$$$ 
 
