PCCDB-ID:  21567 
public computational chemistry database (PCCDB) project, http://pccdb.org 
 
 24 24  0  0  0  0  0  0  0  0999 V2000 
    2.5641    1.6123   -0.3292 C   0  0  0  0  0  0  0  0  0  0  0  0 
    4.8676   -2.7127    0.7466 C   0  0  0  0  0  0  0  0  0  0  0  0 
    3.3924   -2.9366    0.3820 C   0  0  0  0  0  0  0  0  0  0  0  0 
    5.2048   -1.2153    0.7943 C   0  0  0  0  0  0  0  0  0  0  0  0 
    2.9986   -2.2019   -0.9113 C   0  0  0  0  0  0  0  0  0  0  0  0 
    4.8845   -0.5376   -0.5447 C   0  0  0  0  0  0  0  0  0  0  0  0 
    3.4066   -0.7153   -0.9611 C   0  0  0  0  0  0  0  0  0  0  0  0 
    1.6324   -0.3737    0.6650 N   0  0  0  0  0  0  0  0  0  0  0  0 
    2.5203    0.1619   -0.1704 N   0  0  0  0  0  0  0  0  0  0  0  0 
    0.9367    0.4501    1.2637 O   0  0  0  0  0  0  0  0  0  0  0  0 
    3.2388    1.8547   -1.1512 H   0  0  0  0  0  0  0  0  0  0  0  0 
    2.9089    2.0972    0.5903 H   0  0  0  0  0  0  0  0  0  0  0  0 
    1.5580    1.9854   -0.5424 H   0  0  0  0  0  0  0  0  0  0  0  0 
    5.5134   -3.2019    0.0015 H   0  0  0  0  0  0  0  0  0  0  0  0 
    5.0922   -3.1848    1.7111 H   0  0  0  0  0  0  0  0  0  0  0  0 
    2.7552   -2.5868    1.2002 H   0  0  0  0  0  0  0  0  0  0  0  0 
    3.1924   -4.0084    0.2568 H   0  0  0  0  0  0  0  0  0  0  0  0 
    6.2642   -1.0662    1.0370 H   0  0  0  0  0  0  0  0  0  0  0  0 
    4.6284   -0.7342    1.5966 H   0  0  0  0  0  0  0  0  0  0  0  0 
    1.9236   -2.2970   -1.0937 H   0  0  0  0  0  0  0  0  0  0  0  0 
    3.5102   -2.6784   -1.7593 H   0  0  0  0  0  0  0  0  0  0  0  0 
    5.5047   -0.9818   -1.3361 H   0  0  0  0  0  0  0  0  0  0  0  0 
    5.1416    0.5285   -0.5133 H   0  0  0  0  0  0  0  0  0  0  0  0 
    3.2983   -0.3724   -1.9996 H   0  0  0  0  0  0  0  0  0  0  0  0 
  1  9  1  0  0  0  0 
  1 12  1  0  0  0  0 
  2  4  1  0  0  0  0 
  2 15  1  0  0  0  0 
  3  2  1  0  0  0  0 
  3 16  1  0  0  0  0 
  4 18  1  0  0  0  0 
  4 19  1  0  0  0  0 
  5  3  1  0  0  0  0 
  6 23  1  0  0  0  0 
  6  4  1  0  0  0  0 
  7  5  1  0  0  0  0 
  7  6  1  0  0  0  0 
  7  9  1  0  0  0  0 
  8 10  1  0  0  0  0 
  9  8  1  0  0  0  0 
 11  1  1  0  0  0  0 
 13  1  1  0  0  0  0 
 14  2  1  0  0  0  0 
 17  3  1  0  0  0  0 
 20  5  1  0  0  0  0 
 21  5  1  0  0  0  0 
 22  6  1  0  0  0  0 
 24  7  1  0  0  0  0 
M  RAD  2   8   2  10   2 
M  END 
>  <HBA> 
3 
 
>  <HBD> 
0 
 
>  <TPSA> 
32.67 
 
>  <cid> 
21567 
 
>  <dipole> 
3.99 
 
>  <excitation_energy_1> 
3.404 
 
>  <excitation_energy_2> 
5.338 
 
>  <excitation_energy_3> 
5.814 
 
>  <excitation_energy_4> 
5.874 
 
>  <homo_energy> 
-5.85 
 
>  <homo_lumo_gap> 
5.246 
 
>  <logP> 
1.932 
 
>  <lumo_energy> 
-0.604 
 
>  <melting_point> 
17.04 
 
>  <molecular_refractivity> 
41.28 
 
>  <oscillator_strength_1> 
0.0008 
 
>  <oscillator_strength_2> 
0.0025 
 
>  <oscillator_strength_3> 
0.0128 
 
>  <oscillator_strength_4> 
0.1339 
 
>  <open_babel_can_smiles> 
[O][N]N(C1CCCCC1)C 
 
>  <mulliken_charges> 
24 
1   -0.32059 
2   -0.258755 
3   -0.264692 
4   -0.26142 
5   -0.271802 
6   -0.268763 
7   0.027184 
8   0.146129 
9   -0.207143 
10   -0.397584 
11   0.160887 
12   0.181698 
13   0.18851 
14   0.124112 
15   0.136064 
16   0.166874 
17   0.131232 
18   0.135505 
19   0.145097 
20   0.158017 
21   0.133419 
22   0.138204 
23   0.137551 
24   0.140265 
 
>  <lowdin_charges> 
24 
1   -0.37129 
2   -0.279352 
3   -0.283615 
4   -0.279999 
5   -0.279894 
6   -0.286171 
7   -0.060352 
8   0.049244 
9   -0.042501 
10   -0.284817 
11   0.161702 
12   0.168219 
13   0.172922 
14   0.136143 
15   0.146568 
16   0.156178 
17   0.143384 
18   0.145552 
19   0.147018 
20   0.157125 
21   0.147216 
22   0.147551 
23   0.144498 
24   0.144672 
 
$$$$ 
 
