PCCDB-ID:  20655 
public computational chemistry database (PCCDB) project, http://pccdb.org 
 
 45 45  0  0  1  0  0  0  0  0999 V2000 
    4.5317   -5.6467    0.5285 C   0  0  0  0  0  0  0  0  0  0  0  0 
    9.6191   -3.4812   -7.8584 C   0  0  0  0  0  0  0  0  0  0  0  0 
    4.7107   -4.2556   -0.0886 C   0  0  0  0  0  0  0  0  0  0  0  0 
    8.3052   -4.2407   -8.0780 C   0  0  0  0  0  0  0  0  0  0  0  0 
    4.3655   -4.2040   -1.5826 C   0  0  0  0  0  0  0  0  0  0  0  0 
    4.5437   -2.8081   -2.1968 C   0  0  0  0  0  0  0  0  0  0  0  0 
    4.1296   -2.6939   -3.6752 C   0  0  0  0  0  0  0  0  0  0  0  0 
    4.9335   -3.5411   -4.6798 C   0  0  0  0  0  0  0  0  0  0  0  0 
    3.4470   -5.2590   -9.0349 C   0  0  0  0  0  0  0  0  0  0  0  0 
    6.4173   -3.1538   -4.7762 C   0  0  0  0  0  0  0  0  0  0  0  0 
    4.3144   -6.1176   -8.3562 C   0  0  0  0  0  0  0  0  0  0  0  0 
    3.7575   -3.9017   -9.1215 C   0  0  0  0  0  0  0  0  0  0  0  0 
    7.2779   -3.9942   -5.7404 C   0  0  0  0  0  0  0  0  0  0  0  0 
    5.4785   -5.6220   -7.7688 C   0  0  0  0  0  0  0  0  0  0  0  0 
    4.9254   -3.4119   -8.5337 C   0  0  0  0  0  0  0  0  0  0  0  0 
    7.0985   -3.7135   -7.2532 C   0  0  2  0  0  0  0  0  0  0  0  0 
    5.8037   -4.2589   -7.8436 C   0  0  0  0  0  0  0  0  0  0  0  0 
    5.1660   -6.3880    0.0265 H   0  0  0  0  0  0  0  0  0  0  0  0 
    3.4932   -5.9893    0.4412 H   0  0  0  0  0  0  0  0  0  0  0  0 
    4.7946   -5.6505    1.5927 H   0  0  0  0  0  0  0  0  0  0  0  0 
    9.9842   -3.5618   -6.8287 H   0  0  0  0  0  0  0  0  0  0  0  0 
    9.4997   -2.4146   -8.0860 H   0  0  0  0  0  0  0  0  0  0  0  0 
   10.4049   -3.8737   -8.5140 H   0  0  0  0  0  0  0  0  0  0  0  0 
    5.7491   -3.9233    0.0535 H   0  0  0  0  0  0  0  0  0  0  0  0 
    4.0846   -3.5319    0.4526 H   0  0  0  0  0  0  0  0  0  0  0  0 
    8.4517   -5.3080   -7.8600 H   0  0  0  0  0  0  0  0  0  0  0  0 
    8.0416   -4.1848   -9.1417 H   0  0  0  0  0  0  0  0  0  0  0  0 
    3.3251   -4.5338   -1.7257 H   0  0  0  0  0  0  0  0  0  0  0  0 
    4.9899   -4.9337   -2.1171 H   0  0  0  0  0  0  0  0  0  0  0  0 
    5.5884   -2.4896   -2.0736 H   0  0  0  0  0  0  0  0  0  0  0  0 
    3.9447   -2.0910   -1.6171 H   0  0  0  0  0  0  0  0  0  0  0  0 
    4.1958   -1.6379   -3.9754 H   0  0  0  0  0  0  0  0  0  0  0  0 
    3.0679   -2.9656   -3.7623 H   0  0  0  0  0  0  0  0  0  0  0  0 
    4.4608   -3.4417   -5.6625 H   0  0  0  0  0  0  0  0  0  0  0  0 
    4.8562   -4.6059   -4.4193 H   0  0  0  0  0  0  0  0  0  0  0  0 
    2.5393   -5.6450   -9.4911 H   0  0  0  0  0  0  0  0  0  0  0  0 
    6.8689   -3.2315   -3.7783 H   0  0  0  0  0  0  0  0  0  0  0  0 
    6.4992   -2.0922   -5.0563 H   0  0  0  0  0  0  0  0  0  0  0  0 
    4.0847   -7.1778   -8.2843 H   0  0  0  0  0  0  0  0  0  0  0  0 
    3.0919   -3.2216   -9.6472 H   0  0  0  0  0  0  0  0  0  0  0  0 
    7.1140   -5.0627   -5.5411 H   0  0  0  0  0  0  0  0  0  0  0  0 
    8.3288   -3.8046   -5.4904 H   0  0  0  0  0  0  0  0  0  0  0  0 
    6.1413   -6.3072   -7.2459 H   0  0  0  0  0  0  0  0  0  0  0  0 
    5.1587   -2.3516   -8.6064 H   0  0  0  0  0  0  0  0  0  0  0  0 
    7.0772   -2.6206   -7.3823 H   0  0  0  0  0  0  0  0  0  0  0  0 
  1 20  1  0  0  0  0 
  2 21  1  0  0  0  0 
  3 24  1  0  0  0  0 
  3 25  1  0  0  0  0 
  3  1  1  0  0  0  0 
  4 26  1  0  0  0  0 
  4  2  1  0  0  0  0 
  4 16  1  0  0  0  0 
  5  3  1  0  0  0  0 
  6 30  1  0  0  0  0 
  6 31  1  0  0  0  0 
  6  5  1  0  0  0  0 
  7  6  1  0  0  0  0 
  8 35  1  0  0  0  0 
  8  7  1  0  0  0  0 
  9 11  1  0  0  0  0 
 10  8  1  0  0  0  0 
 10 37  1  0  0  0  0 
 11 39  1  0  0  0  0 
 11 14  2  0  0  0  0 
 12  9  2  0  0  0  0 
 12 15  1  0  0  0  0 
 13 41  1  0  0  0  0 
 13 42  1  0  0  0  0 
 13 10  1  0  0  0  0 
 14 43  1  0  0  0  0 
 15 17  2  0  0  0  0 
 16 45  1  6  0  0  0 
 16 13  1  0  0  0  0 
 17 14  1  0  0  0  0 
 17 16  1  0  0  0  0 
 18  1  1  0  0  0  0 
 19  1  1  0  0  0  0 
 22  2  1  0  0  0  0 
 23  2  1  0  0  0  0 
 27  4  1  0  0  0  0 
 28  5  1  0  0  0  0 
 29  5  1  0  0  0  0 
 32  7  1  0  0  0  0 
 33  7  1  0  0  0  0 
 34  8  1  0  0  0  0 
 36  9  1  0  0  0  0 
 38 10  1  0  0  0  0 
 40 12  1  0  0  0  0 
 44 15  1  0  0  0  0 
M  END 
>  <HBA> 
0 
 
>  <HBD> 
0 
 
>  <TPSA> 
0.0 
 
>  <cid> 
20655 
 
>  <dipole> 
0.3 
 
>  <excitation_energy_1> 
5.26 
 
>  <excitation_energy_2> 
5.844 
 
>  <excitation_energy_3> 
5.916 
 
>  <excitation_energy_4> 
6.182 
 
>  <homo_energy> 
-6.348 
 
>  <homo_lumo_gap> 
6.441 
 
>  <logP> 
5.931 
 
>  <lumo_energy> 
0.093 
 
>  <melting_point> 
0.51 
 
>  <molecular_refractivity> 
79.48 
 
>  <oscillator_strength_1> 
0.0018 
 
>  <oscillator_strength_2> 
0.0394 
 
>  <oscillator_strength_3> 
0.0006 
 
>  <oscillator_strength_4> 
0.0003 
 
>  <open_babel_can_smiles> 
CCCCCCCC[C@H](c1ccccc1)CC 
 
>  <mulliken_charges> 
45 
1   -0.441521 
2   -0.449587 
3   -0.246148 
4   -0.252624 
5   -0.246156 
6   -0.256413 
7   -0.258777 
8   -0.261178 
9   -0.132292 
10   -0.25799 
11   -0.129568 
12   -0.125357 
13   -0.269666 
14   -0.182232 
15   -0.195704 
16   -0.159192 
17   0.177781 
18   0.140005 
19   0.140935 
20   0.140388 
21   0.147493 
22   0.142503 
23   0.14485 
24   0.128566 
25   0.129185 
26   0.1321 
27   0.140391 
28   0.125352 
29   0.130223 
30   0.129495 
31   0.125262 
32   0.123345 
33   0.126294 
34   0.149074 
35   0.129014 
36   0.126309 
37   0.131051 
38   0.12381 
39   0.126638 
40   0.126802 
41   0.129589 
42   0.131414 
43   0.124792 
44   0.122102 
45   0.119641 
 
>  <lowdin_charges> 
45 
1   -0.44332 
2   -0.4463 
3   -0.271953 
4   -0.268645 
5   -0.277238 
6   -0.278947 
7   -0.273248 
8   -0.282666 
9   -0.163319 
10   -0.274555 
11   -0.152922 
12   -0.157709 
13   -0.273863 
14   -0.170216 
15   -0.171761 
16   -0.122611 
17   0.003208 
18   0.146651 
19   0.144918 
20   0.146944 
21   0.146084 
22   0.145034 
23   0.152866 
24   0.136826 
25   0.139437 
26   0.139042 
27   0.145544 
28   0.135632 
29   0.139252 
30   0.135942 
31   0.141038 
32   0.13695 
33   0.138365 
34   0.152593 
35   0.13633 
36   0.156469 
37   0.140134 
38   0.134396 
39   0.154352 
40   0.157771 
41   0.138083 
42   0.142747 
43   0.155172 
44   0.151502 
45   0.135989 
 
$$$$ 
 
