PCCDB-ID:  49312 
public computational chemistry database (PCCDB) project, http://pccdb.org 
 
 29 29  0  0  1  0  0  0  0  0999 V2000 
    0.9353    0.3663   -1.7321 C   0  0  0  0  0  0  0  0  0  0  0  0 
    6.8391    1.6365   -1.8626 C   0  0  0  0  0  0  0  0  0  0  0  0 
    5.4583   -0.1921   -2.8860 C   0  0  0  0  0  0  0  0  0  0  0  0 
    2.4112    0.6423   -1.7521 C   0  0  0  0  0  0  0  0  0  0  0  0 
    3.2207    0.5075   -0.6907 C   0  0  0  0  0  0  0  0  0  0  0  0 
    5.4185    1.0616   -1.9925 C   0  0  0  0  0  0  0  0  0  0  0  0 
    5.4067   -0.3177    0.1747 C   0  0  0  0  0  0  0  0  0  0  0  0 
    4.8847    2.0714    0.2787 C   0  0  0  0  0  0  0  0  0  0  0  0 
    6.6670    1.1584    1.4296 C   0  0  0  0  0  0  0  0  0  0  0  0 
    4.7138    0.8127   -0.5930 C   0  0  2  0  0  0  0  0  0  0  0  0 
    6.2966   -0.1651    1.0703 N   0  0  0  0  0  0  0  0  0  0  0  0 
    5.7629    2.2264    1.1856 N   0  0  0  0  0  0  0  0  0  0  0  0 
    5.0431   -1.5782   -0.1443 O   0  0  0  0  0  0  0  0  0  0  0  0 
    4.0605    3.0993    0.0015 O   0  0  0  0  0  0  0  0  0  0  0  0 
    7.7235    1.3675    1.9800 O   0  0  0  0  0  0  0  0  0  0  0  0 
    0.3667    1.2551   -2.0343 H   0  0  0  0  0  0  0  0  0  0  0  0 
    0.5912    0.0591   -0.7398 H   0  0  0  0  0  0  0  0  0  0  0  0 
    0.6779   -0.4255   -2.4475 H   0  0  0  0  0  0  0  0  0  0  0  0 
    7.2549    1.7939   -2.8634 H   0  0  0  0  0  0  0  0  0  0  0  0 
    7.5059    0.9470   -1.3336 H   0  0  0  0  0  0  0  0  0  0  0  0 
    6.8596    2.5965   -1.3404 H   0  0  0  0  0  0  0  0  0  0  0  0 
    5.8277    0.0848   -3.8791 H   0  0  0  0  0  0  0  0  0  0  0  0 
    4.4766   -0.6567   -3.0242 H   0  0  0  0  0  0  0  0  0  0  0  0 
    6.1407   -0.9466   -2.4814 H   0  0  0  0  0  0  0  0  0  0  0  0 
    2.8176    0.9623   -2.7105 H   0  0  0  0  0  0  0  0  0  0  0  0 
    2.7733    0.1914    0.2539 H   0  0  0  0  0  0  0  0  0  0  0  0 
    4.8054    1.8223   -2.4938 H   0  0  0  0  0  0  0  0  0  0  0  0 
    4.3324   -1.5459   -0.8074 H   0  0  0  0  0  0  0  0  0  0  0  0 
    3.3610    2.7824   -0.5985 H   0  0  0  0  0  0  0  0  0  0  0  0 
  1 17  1  0  0  0  0 
  2 21  1  0  0  0  0 
  2 20  1  0  0  0  0 
  3 24  1  0  0  0  0 
  3  6  1  0  0  0  0 
  4  1  1  0  0  0  0 
  4  5  2  0  0  0  0 
  5 26  1  0  0  0  0 
  6  2  1  0  0  0  0 
  6 10  1  0  0  0  0 
  7 11  2  0  0  0  0 
  8 12  2  0  0  0  0 
  9 15  2  0  0  0  0 
 10  5  1  6  0  0  0 
 10  7  1  0  0  0  0 
 10  8  1  0  0  0  0 
 11  9  2  0  0  0  0 
 12  9  1  0  0  0  0 
 13  7  1  0  0  0  0 
 14  8  1  0  0  0  0 
 16  1  1  0  0  0  0 
 18  1  1  0  0  0  0 
 19  2  1  0  0  0  0 
 22  3  1  0  0  0  0 
 23  3  1  0  0  0  0 
 25  4  1  0  0  0  0 
 27  6  1  0  0  0  0 
 28 13  1  0  0  0  0 
 29 14  1  0  0  0  0 
M  END 
>  <HBA> 
5 
 
>  <HBD> 
2 
 
>  <TPSA> 
75.27 
 
>  <cid> 
49312 
 
>  <dipole> 
10.62 
 
>  <excitation_energy_1> 
3.988 
 
>  <excitation_energy_2> 
4.271 
 
>  <excitation_energy_3> 
4.994 
 
>  <excitation_energy_4> 
5.292 
 
>  <homo_energy> 
-6.787 
 
>  <homo_lumo_gap> 
5.323 
 
>  <logP> 
1.228 
 
>  <lumo_energy> 
-1.464 
 
>  <melting_point> 
150.7 
 
>  <molecular_refractivity> 
61.76 
 
>  <oscillator_strength_1> 
0.0012 
 
>  <oscillator_strength_2> 
0.0008 
 
>  <oscillator_strength_3> 
0.0479 
 
>  <oscillator_strength_4> 
0.0089 
 
>  <open_babel_can_smiles> 
C/C=C/[C@@]1(C(C)C)C(=N[C](=[N]=C1O)=O)O 
 
>  <mulliken_charges> 
29 
1   -0.49461 
2   -0.481119 
3   -0.481289 
4   -0.093479 
5   -0.218526 
6   -0.076831 
7   0.526021 
8   0.539196 
9   0.614153 
10   -0.141324 
11   -0.462785 
12   -0.460588 
13   -0.574119 
14   -0.576206 
15   -0.433096 
16   0.174053 
17   0.171308 
18   0.174439 
19   0.15493 
20   0.179972 
21   0.184976 
22   0.163319 
23   0.138635 
24   0.179169 
25   0.155793 
26   0.166898 
27   0.135664 
28   0.422325 
29   0.413119 
 
>  <lowdin_charges> 
29 
1   -0.440202 
2   -0.454751 
3   -0.459926 
4   -0.152604 
5   -0.207757 
6   -0.114437 
7   0.141973 
8   0.144707 
9   0.172012 
10   -0.060601 
11   -0.182198 
12   -0.183465 
13   -0.327084 
14   -0.329368 
15   -0.21303 
16   0.169273 
17   0.16401 
18   0.169446 
19   0.15883 
20   0.167529 
21   0.169173 
22   0.162081 
23   0.144902 
24   0.165598 
25   0.16188 
26   0.168676 
27   0.144288 
28   0.361384 
29   0.35966 
 
$$$$ 
 
