PCCDB-ID:  31169 
public computational chemistry database (PCCDB) project, http://pccdb.org 
 
 26 26  0  0  0  0  0  0  0  0999 V2000 
    1.2362   -2.1300    1.3173 C   0  0  0  0  0  0  0  0  0  0  0  0 
    2.7281   -2.0026    0.9905 C   0  0  0  0  0  0  0  0  0  0  0  0 
    3.4544   -1.0039    1.9025 C   0  0  0  0  0  0  0  0  0  0  0  0 
    5.8112   -2.0262    1.7843 C   0  0  0  0  0  0  0  0  0  0  0  0 
    5.5176    0.3970    2.3919 C   0  0  0  0  0  0  0  0  0  0  0  0 
    7.2933   -1.7307    1.5279 C   0  0  0  0  0  0  0  0  0  0  0  0 
    7.0091    0.6037    2.1110 C   0  0  0  0  0  0  0  0  0  0  0  0 
    4.9398   -0.7728    1.5722 C   0  0  0  0  0  0  0  0  0  0  0  0 
    7.7372   -0.6349    2.3902 N   0  0  0  0  0  0  0  0  0  0  0  0 
    0.7390   -2.8431    0.6497 H   0  0  0  0  0  0  0  0  0  0  0  0 
    0.7239   -1.1652    1.2156 H   0  0  0  0  0  0  0  0  0  0  0  0 
    1.0843   -2.4765    2.3470 H   0  0  0  0  0  0  0  0  0  0  0  0 
    2.8473   -1.6888   -0.0567 H   0  0  0  0  0  0  0  0  0  0  0  0 
    3.1979   -2.9918    1.0677 H   0  0  0  0  0  0  0  0  0  0  0  0 
    3.3677   -1.3373    2.9480 H   0  0  0  0  0  0  0  0  0  0  0  0 
    2.9313   -0.0371    1.8500 H   0  0  0  0  0  0  0  0  0  0  0  0 
    5.6962   -2.3774    2.8192 H   0  0  0  0  0  0  0  0  0  0  0  0 
    5.4872   -2.8400    1.1242 H   0  0  0  0  0  0  0  0  0  0  0  0 
    4.9676    1.3210    2.1688 H   0  0  0  0  0  0  0  0  0  0  0  0 
    5.3874    0.1901    3.4630 H   0  0  0  0  0  0  0  0  0  0  0  0 
    7.4313   -1.5059    0.4500 H   0  0  0  0  0  0  0  0  0  0  0  0 
    7.8986   -2.6171    1.7523 H   0  0  0  0  0  0  0  0  0  0  0  0 
    7.4100    1.3954    2.7551 H   0  0  0  0  0  0  0  0  0  0  0  0 
    7.1328    0.9423    1.0614 H   0  0  0  0  0  0  0  0  0  0  0  0 
    5.0094   -0.4960    0.5064 H   0  0  0  0  0  0  0  0  0  0  0  0 
    8.7358   -0.4823    2.2655 H   0  0  0  0  0  0  0  0  0  0  0  0 
  1 12  1  0  0  0  0 
  2 14  1  0  0  0  0 
  2  1  1  0  0  0  0 
  2  3  1  0  0  0  0 
  3 15  1  0  0  0  0 
  4 17  1  0  0  0  0 
  5 20  1  0  0  0  0 
  6 22  1  0  0  0  0 
  6  4  1  0  0  0  0 
  6  9  1  0  0  0  0 
  7  9  1  0  0  0  0 
  7  5  1  0  0  0  0 
  7 23  1  0  0  0  0 
  8  4  1  0  0  0  0 
  8  3  1  0  0  0  0 
  8  5  1  0  0  0  0 
 10  1  1  0  0  0  0 
 11  1  1  0  0  0  0 
 13  2  1  0  0  0  0 
 16  3  1  0  0  0  0 
 18  4  1  0  0  0  0 
 19  5  1  0  0  0  0 
 21  6  1  0  0  0  0 
 24  7  1  0  0  0  0 
 25  8  1  0  0  0  0 
 26  9  1  0  0  0  0 
M  END 
>  <HBA> 
1 
 
>  <HBD> 
1 
 
>  <TPSA> 
12.03 
 
>  <cid> 
31169 
 
>  <dipole> 
0.9 
 
>  <excitation_energy_1> 
5.254 
 
>  <excitation_energy_2> 
5.972 
 
>  <excitation_energy_3> 
5.987 
 
>  <excitation_energy_4> 
6.037 
 
>  <homo_energy> 
-5.837 
 
>  <homo_lumo_gap> 
8.15 
 
>  <logP> 
2.115 
 
>  <lumo_energy> 
2.313 
 
>  <melting_point> 
21.87 
 
>  <molecular_refractivity> 
45.17 
 
>  <oscillator_strength_1> 
0.004 
 
>  <oscillator_strength_2> 
0.029 
 
>  <oscillator_strength_3> 
0.0419 
 
>  <oscillator_strength_4> 
0.02 
 
>  <open_babel_can_smiles> 
CCCC1CCNCC1 
 
>  <mulliken_charges> 
26 
1   -0.441453 
2   -0.254569 
3   -0.246605 
4   -0.25476 
5   -0.253628 
6   -0.132923 
7   -0.132671 
8   -0.082233 
9   -0.544452 
10   0.140594 
11   0.140725 
12   0.141713 
13   0.12873 
14   0.135765 
15   0.125268 
16   0.123095 
17   0.136273 
18   0.129823 
19   0.124462 
20   0.137356 
21   0.104934 
22   0.133135 
23   0.133061 
24   0.104712 
25   0.110397 
26   0.29325 
 
>  <lowdin_charges> 
26 
1   -0.444246 
2   -0.27236 
3   -0.272909 
4   -0.28288 
5   -0.279784 
6   -0.202565 
7   -0.204473 
8   -0.128076 
9   -0.365825 
10   0.149874 
11   0.145522 
12   0.145481 
13   0.13667 
14   0.139954 
15   0.136388 
16   0.13798 
17   0.142968 
18   0.144331 
19   0.141921 
20   0.142786 
21   0.109995 
22   0.143954 
23   0.14473 
24   0.11065 
25   0.128643 
26   0.25127 
 
$$$$ 
 
