PCCDB-ID:  66298 
public computational chemistry database (PCCDB) project, http://pccdb.org 
 
 23 22  0  0  0  0  0  0  0  0999 V2000 
    0.9143   -0.1734   -0.1364 C   0  0  0  0  0  0  0  0  0  0  0  0 
    2.6282    1.4091    0.7989 C   0  0  0  0  0  0  0  0  0  0  0  0 
    2.8083   -1.0641    1.2548 C   0  0  0  0  0  0  0  0  0  0  0  0 
    6.6641   -1.5113   -0.7906 C   0  0  0  0  0  0  0  0  0  0  0  0 
    3.2215   -0.1877   -1.0978 C   0  0  0  0  0  0  0  0  0  0  0  0 
    4.7228   -0.1758   -0.8990 C   0  0  0  0  0  0  0  0  0  0  0  0 
    2.4038    0.0008    0.2175 C   0  0  0  0  0  0  0  0  0  0  0  0 
    5.3982    0.8060   -0.6683 O   0  0  0  0  0  0  0  0  0  0  0  0 
    5.2444   -1.4231   -0.9918 O   0  0  0  0  0  0  0  0  0  0  0  0 
    0.2874   -0.0302    0.7519 H   0  0  0  0  0  0  0  0  0  0  0  0 
    0.7115   -1.1763   -0.5317 H   0  0  0  0  0  0  0  0  0  0  0  0 
    0.5965    0.5574   -0.8900 H   0  0  0  0  0  0  0  0  0  0  0  0 
    2.0467    1.5366    1.7201 H   0  0  0  0  0  0  0  0  0  0  0  0 
    2.3080    2.1828    0.0904 H   0  0  0  0  0  0  0  0  0  0  0  0 
    3.6826    1.5868    1.0277 H   0  0  0  0  0  0  0  0  0  0  0  0 
    2.1872   -0.9774    2.1541 H   0  0  0  0  0  0  0  0  0  0  0  0 
    3.8538   -0.9502    1.5640 H   0  0  0  0  0  0  0  0  0  0  0  0 
    2.6857   -2.0781    0.8561 H   0  0  0  0  0  0  0  0  0  0  0  0 
    6.9111   -2.5674   -0.9037 H   0  0  0  0  0  0  0  0  0  0  0  0 
    6.9347   -1.1582    0.2082 H   0  0  0  0  0  0  0  0  0  0  0  0 
    7.1958   -0.9102   -1.5331 H   0  0  0  0  0  0  0  0  0  0  0  0 
    2.9351   -1.1321   -1.5706 H   0  0  0  0  0  0  0  0  0  0  0  0 
    2.9779    0.6301   -1.7857 H   0  0  0  0  0  0  0  0  0  0  0  0 
  1  7  1  0  0  0  0 
  1 10  1  0  0  0  0 
  2 15  1  0  0  0  0 
  2 13  1  0  0  0  0 
  3 17  1  0  0  0  0 
  3 16  1  0  0  0  0 
  4 20  1  0  0  0  0 
  5  6  1  0  0  0  0 
  5  7  1  0  0  0  0 
  6  8  2  0  0  0  0 
  7  2  1  0  0  0  0 
  7  3  1  0  0  0  0 
  9  6  1  0  0  0  0 
  9  4  1  0  0  0  0 
 11  1  1  0  0  0  0 
 12  1  1  0  0  0  0 
 14  2  1  0  0  0  0 
 18  3  1  0  0  0  0 
 19  4  1  0  0  0  0 
 21  4  1  0  0  0  0 
 22  5  1  0  0  0  0 
 23  5  1  0  0  0  0 
M  END 
>  <HBA> 
2 
 
>  <HBD> 
0 
 
>  <TPSA> 
26.3 
 
>  <cid> 
66298 
 
>  <dipole> 
1.63 
 
>  <excitation_energy_1> 
5.655 
 
>  <excitation_energy_2> 
6.864 
 
>  <excitation_energy_3> 
7.276 
 
>  <excitation_energy_4> 
7.545 
 
>  <homo_energy> 
-7.197 
 
>  <homo_lumo_gap> 
7.494 
 
>  <logP> 
1.596 
 
>  <lumo_energy> 
0.297 
 
>  <melting_point> 
3.9 
 
>  <molecular_refractivity> 
36.79 
 
>  <oscillator_strength_1> 
0.0018 
 
>  <oscillator_strength_2> 
0.0231 
 
>  <oscillator_strength_3> 
0.0072 
 
>  <oscillator_strength_4> 
0.0012 
 
>  <open_babel_can_smiles> 
COC(=O)CC(C)(C)C 
 
>  <mulliken_charges> 
23 
1   -0.44006 
2   -0.445409 
3   -0.447952 
4   -0.219167 
5   -0.332208 
6   0.609795 
7   0.085221 
8   -0.481082 
9   -0.44829 
10   0.143307 
11   0.139538 
12   0.140735 
13   0.134622 
14   0.137947 
15   0.170562 
16   0.142053 
17   0.147639 
18   0.14391 
19   0.162994 
20   0.168364 
21   0.170379 
22   0.155243 
23   0.161859 
 
>  <lowdin_charges> 
23 
1   -0.442294 
2   -0.446782 
3   -0.443367 
4   -0.278619 
5   -0.299806 
6   0.198416 
7   0.023358 
8   -0.270916 
9   -0.195656 
10   0.150579 
11   0.146524 
12   0.14901 
13   0.146072 
14   0.148625 
15   0.161389 
16   0.150138 
17   0.149402 
18   0.149046 
19   0.158331 
20   0.157564 
21   0.160905 
22   0.16093 
23   0.167154 
 
$$$$ 
 
