PCCDB-ID:  68374 
public computational chemistry database (PCCDB) project, http://pccdb.org 
 
 18 19  0  0  1  0  0  0  0  0999 V2000 
    1.0482   -0.0074   -0.0071 C   0  0  0  0  0  0  0  0  0  0  0  0 
    3.3983   -0.9169   -0.0075 C   0  0  0  0  0  0  0  0  0  0  0  0 
    3.2659    1.2734   -0.0048 C   0  0  1  0  0  0  0  0  0  0  0  0 
    4.6070    0.8302   -0.0023 C   0  0  0  0  0  0  0  0  0  0  0  0 
    3.0432    2.6589   -0.0083 C   0  0  0  0  0  0  0  0  0  0  0  0 
    5.3044    2.9508   -0.0012 C   0  0  0  0  0  0  0  0  0  0  0  0 
    4.6575   -0.5477   -0.0038 N   0  0  0  0  0  0  0  0  0  0  0  0 
    5.6551    1.6676    0.0005 N   0  0  0  0  0  0  0  0  0  0  0  0 
    4.0713    3.4860   -0.0057 N   0  0  0  0  0  0  0  0  0  0  0  0 
    2.4934    0.1138   -0.0092 N   0  0  0  0  0  0  0  0  0  0  0  0 
    1.8226    3.2505   -0.0123 O   0  0  0  0  0  0  0  0  0  0  0  0 
    6.3003    3.8582    0.0015 O   0  0  0  0  0  0  0  0  0  0  0  0 
    0.7840   -1.0673   -0.0025 H   0  0  0  0  0  0  0  0  0  0  0  0 
    0.6110    0.4454   -0.9055 H   0  0  0  0  0  0  0  0  0  0  0  0 
    0.6135    0.4529    0.8886 H   0  0  0  0  0  0  0  0  0  0  0  0 
    3.0560   -1.9453   -0.0104 H   0  0  0  0  0  0  0  0  0  0  0  0 
    1.1277    2.5754   -0.0211 H   0  0  0  0  0  0  0  0  0  0  0  0 
    7.1250    3.3411    0.0040 H   0  0  0  0  0  0  0  0  0  0  0  0 
  1 13  1  0  0  0  0 
  1 15  1  0  0  0  0 
  2  7  1  0  0  0  0 
  3  5  1  6  0  0  0 
  3  4  1  0  0  0  0 
  4  8  1  0  0  0  0 
  5  9  2  0  0  0  0 
  6  8  2  0  0  0  0 
  6 12  1  0  0  0  0 
  7  4  2  0  0  0  0 
  9  6  2  0  0  0  0 
 10  2  1  0  0  0  0 
 10  1  1  0  0  0  0 
 10  3  1  0  0  0  0 
 11  5  1  0  0  0  0 
 12 18  1  0  0  0  0 
 14  1  1  0  0  0  0 
 16  2  1  0  0  0  0 
 17 11  1  0  0  0  0 
M  RAD  2   2   2   3   2 
M  END 
>  <HBA> 
4 
 
>  <HBD> 
2 
 
>  <TPSA> 
83.54 
 
>  <cid> 
68374 
 
>  <dipole> 
6.7 
 
>  <excitation_energy_1> 
4.687 
 
>  <excitation_energy_2> 
4.844 
 
>  <excitation_energy_3> 
4.989 
 
>  <excitation_energy_4> 
5.549 
 
>  <homo_energy> 
-6.242 
 
>  <homo_lumo_gap> 
5.271 
 
>  <logP> 
-1.05 
 
>  <lumo_energy> 
-0.971 
 
>  <melting_point> 
231.76 
 
>  <molecular_refractivity> 
42.24 
 
>  <oscillator_strength_1> 
0.0955 
 
>  <oscillator_strength_2> 
0.0018 
 
>  <oscillator_strength_3> 
0.0013 
 
>  <oscillator_strength_4> 
0.0308 
 
>  <open_babel_can_smiles> 
CN1[CH]N=C2[C]1C(=[N]=[C](=N2)O)O 
 
>  <mulliken_charges> 
18 
1   -0.36013 
2   0.220959 
3   0.263753 
4   0.411962 
5   0.498026 
6   0.623519 
7   -0.475448 
8   -0.560004 
9   -0.4931 
10   -0.502128 
11   -0.598196 
12   -0.589787 
13   0.192431 
14   0.184043 
15   0.184562 
16   0.168075 
17   0.413654 
18   0.417808 
 
>  <lowdin_charges> 
18 
1   -0.354455 
2   -0.053399 
3   -0.087704 
4   0.072344 
5   0.148096 
6   0.16074 
7   -0.17817 
8   -0.210827 
9   -0.182618 
10   -0.02969 
11   -0.343941 
12   -0.340837 
13   0.177839 
14   0.1642 
15   0.164584 
16   0.171104 
17   0.357167 
18   0.365566 
 
$$$$ 
 
