PCCDB-ID:  69607 
public computational chemistry database (PCCDB) project, http://pccdb.org 
 
 10  9  0  0  0  0  0  0  0  0999 V2000 
    0.9912    0.0701   -0.0333 C   0  0  0  0  0  0  0  0  0  0  0  0 
    3.3355    0.9019   -1.4672 C   0  0  0  0  0  0  0  0  0  0  0  0 
    2.8459    0.1781    0.1871 P   0  0  0  0  0  0  0  0  0  0  0  0 
    0.5641   -0.5291    0.7776 H   0  0  0  0  0  0  0  0  0  0  0  0 
    0.6942   -0.3688   -0.9917 H   0  0  0  0  0  0  0  0  0  0  0  0 
    0.5627    1.0755    0.0391 H   0  0  0  0  0  0  0  0  0  0  0  0 
    4.4227    0.8400   -1.5824 H   0  0  0  0  0  0  0  0  0  0  0  0 
    3.0616    1.9622   -1.4898 H   0  0  0  0  0  0  0  0  0  0  0  0 
    2.8607    0.3995   -2.3166 H   0  0  0  0  0  0  0  0  0  0  0  0 
    3.1352   -1.1828   -0.1299 H   0  0  0  0  0  0  0  0  0  0  0  0 
  1  6  1  0  0  0  0 
  1  3  1  0  0  0  0 
  1  4  1  0  0  0  0 
  2  3  1  0  0  0  0 
  5  1  1  0  0  0  0 
  7  2  1  0  0  0  0 
  8  2  1  0  0  0  0 
  9  2  1  0  0  0  0 
 10  3  1  0  0  0  0 
M  END 
>  <HBA> 
0 
 
>  <HBD> 
1 
 
>  <TPSA> 
13.59 
 
>  <cid> 
69607 
 
>  <dipole> 
1.39 
 
>  <excitation_energy_1> 
5.53 
 
>  <excitation_energy_2> 
5.86 
 
>  <excitation_energy_3> 
6.303 
 
>  <excitation_energy_4> 
6.773 
 
>  <homo_energy> 
-6.346 
 
>  <homo_lumo_gap> 
7.693 
 
>  <logP> 
0.924 
 
>  <lumo_energy> 
1.347 
 
>  <melting_point> 
-23.91 
 
>  <molecular_refractivity> 
20.04 
 
>  <oscillator_strength_1> 
0.0359 
 
>  <oscillator_strength_2> 
0.0901 
 
>  <oscillator_strength_3> 
0.0972 
 
>  <oscillator_strength_4> 
0.1031 
 
>  <open_babel_can_smiles> 
CPC 
 
>  <mulliken_charges> 
10 
1   -0.617999 
2   -0.618067 
3   0.238771 
4   0.171405 
5   0.165404 
6   0.16797 
7   0.171422 
8   0.167989 
9   0.165416 
10   -0.012312 
 
>  <lowdin_charges> 
10 
1   -0.612296 
2   -0.608501 
3   0.215093 
4   0.172024 
5   0.158328 
6   0.166666 
7   0.169416 
8   0.16604 
9   0.159133 
10   0.014099 
 
$$$$ 
 
