PCCDB-ID:  14334 
public computational chemistry database (PCCDB) project, http://pccdb.org 
 
 30 31  0  0  1  0  0  0  0  0999 V2000 
    1.4121   -0.3797    0.9874 C   0  0  0  0  0  0  0  0  0  0  0  0 
    2.3494   -0.0806   -1.3101 C   0  0  0  0  0  0  0  0  0  0  0  0 
    3.7519    0.9859    3.1575 C   0  0  0  0  0  0  0  0  0  0  0  0 
    3.2771    2.4093    0.0968 C   0  0  0  0  0  0  0  0  0  0  0  0 
    3.7434   -1.2719    0.4616 C   0  0  0  0  0  0  0  0  0  0  0  0 
    5.5346    0.2227    1.4886 C   0  0  0  0  0  0  0  0  0  0  0  0 
    5.2116   -0.8104    0.3865 C   0  0  2  0  0  0  0  0  0  0  0  0 
    3.3556    1.1795    0.6271 C   0  0  0  0  0  0  0  0  0  0  0  0 
    4.2009    3.3187    0.8092 C   0  0  0  0  0  0  0  0  0  0  0  0 
    2.7155   -0.1241    0.1900 C   0  0  0  0  0  0  0  0  0  0  0  0 
    4.3671    1.2132    1.7685 C   0  0  1  0  0  0  0  0  0  0  0  0 
    5.5549   -0.3228   -0.9139 O   0  0  0  0  0  0  0  0  0  0  0  0 
    4.4179    4.4918    0.6354 O   0  0  0  0  0  0  0  0  0  0  0  0 
    4.8566    2.5753    1.7654 O   0  0  0  0  0  0  0  0  0  0  0  0 
    0.9946   -1.3545    0.7084 H   0  0  0  0  0  0  0  0  0  0  0  0 
    0.6626    0.3870    0.7626 H   0  0  0  0  0  0  0  0  0  0  0  0 
    1.5778   -0.3847    2.0682 H   0  0  0  0  0  0  0  0  0  0  0  0 
    1.8490   -1.0134   -1.5931 H   0  0  0  0  0  0  0  0  0  0  0  0 
    3.2382    0.0223   -1.9374 H   0  0  0  0  0  0  0  0  0  0  0  0 
    1.6613    0.7428   -1.5306 H   0  0  0  0  0  0  0  0  0  0  0  0 
    3.4248   -0.0498    3.2869 H   0  0  0  0  0  0  0  0  0  0  0  0 
    2.8987    1.6514    3.3199 H   0  0  0  0  0  0  0  0  0  0  0  0 
    4.5104    1.2022    3.9164 H   0  0  0  0  0  0  0  0  0  0  0  0 
    2.6794    2.7505   -0.7383 H   0  0  0  0  0  0  0  0  0  0  0  0 
    3.5727   -1.7018    1.4583 H   0  0  0  0  0  0  0  0  0  0  0  0 
    3.5796   -2.0779   -0.2616 H   0  0  0  0  0  0  0  0  0  0  0  0 
    6.4183    0.7922    1.1861 H   0  0  0  0  0  0  0  0  0  0  0  0 
    5.7928   -0.3003    2.4166 H   0  0  0  0  0  0  0  0  0  0  0  0 
    5.8591   -1.6821    0.5262 H   0  0  0  0  0  0  0  0  0  0  0  0 
    5.2109    0.5810   -0.9966 H   0  0  0  0  0  0  0  0  0  0  0  0 
  1 17  1  0  0  0  0 
  2 10  1  0  0  0  0 
  3 21  1  0  0  0  0 
  3 22  1  0  0  0  0 
  3 23  1  0  0  0  0 
  4  8  2  0  0  0  0 
  4  9  1  0  0  0  0 
  5 25  1  0  0  0  0 
  6 11  1  0  0  0  0 
  6 28  1  0  0  0  0 
  7  5  1  0  0  0  0 
  7 29  1  1  0  0  0 
  7  6  1  0  0  0  0 
  8 11  1  0  0  0  0 
  9 14  1  0  0  0  0 
 10  5  1  0  0  0  0 
 10  8  1  0  0  0  0 
 10  1  1  0  0  0  0 
 11  3  1  1  0  0  0 
 12  7  1  0  0  0  0 
 13  9  2  0  0  0  0 
 14 11  1  0  0  0  0 
 15  1  1  0  0  0  0 
 16  1  1  0  0  0  0 
 18  2  1  0  0  0  0 
 19  2  1  0  0  0  0 
 20  2  1  0  0  0  0 
 24  4  1  0  0  0  0 
 26  5  1  0  0  0  0 
 27  6  1  0  0  0  0 
 30 12  1  0  0  0  0 
M  END 
>  <HBA> 
3 
 
>  <HBD> 
1 
 
>  <TPSA> 
46.53 
 
>  <cid> 
14334 
 
>  <dipole> 
5.27 
 
>  <excitation_energy_1> 
4.669 
 
>  <excitation_energy_2> 
5.338 
 
>  <excitation_energy_3> 
5.785 
 
>  <excitation_energy_4> 
6.178 
 
>  <homo_energy> 
-7.203 
 
>  <homo_lumo_gap> 
5.968 
 
>  <logP> 
1.409 
 
>  <lumo_energy> 
-1.235 
 
>  <melting_point> 
89.25 
 
>  <molecular_refractivity> 
52.51 
 
>  <oscillator_strength_1> 
0.0004 
 
>  <oscillator_strength_2> 
0.0108 
 
>  <oscillator_strength_3> 
0.2152 
 
>  <oscillator_strength_4> 
0.1098 
 
>  <open_babel_can_smiles> 
O[C@H]1C[C@@]2(C)OC(=O)C=C2C(C1)(C)C 
 
>  <mulliken_charges> 
30 
1   -0.454056 
2   -0.45841 
3   -0.459609 
4   -0.277719 
5   -0.294927 
6   -0.328265 
7   0.124469 
8   0.120455 
9   0.602306 
10   0.035879 
11   0.261967 
12   -0.627141 
13   -0.472119 
14   -0.49944 
15   0.153597 
16   0.154647 
17   0.152424 
18   0.149318 
19   0.162369 
20   0.146815 
21   0.152226 
22   0.163302 
23   0.174246 
24   0.158647 
25   0.13369 
26   0.156084 
27   0.183177 
28   0.150582 
29   0.142056 
30   0.39343 
 
>  <lowdin_charges> 
30 
1   -0.435909 
2   -0.444096 
3   -0.444343 
4   -0.222518 
5   -0.29401 
6   -0.303802 
7   -0.003175 
8   0.008862 
9   0.18252 
10   0.009746 
11   0.124712 
12   -0.463161 
13   -0.239808 
14   -0.195309 
15   0.155133 
16   0.156168 
17   0.151349 
18   0.154406 
19   0.159404 
20   0.150965 
21   0.152981 
22   0.162207 
23   0.168893 
24   0.179335 
25   0.146437 
26   0.160154 
27   0.174378 
28   0.158139 
29   0.151417 
30   0.338924 
 
$$$$ 
 
