PCCDB-ID:  29846 
public computational chemistry database (PCCDB) project, http://pccdb.org 
 
 23 22  0  0  0  0  0  0  0  0999 V2000 
    2.7575    1.4425   -0.4704 C   0  0  0  0  0  0  0  0  0  0  0  0 
    1.0445   -1.2625   -2.3791 C   0  0  0  0  0  0  0  0  0  0  0  0 
    2.6348   -2.4571    0.0729 C   0  0  0  0  0  0  0  0  0  0  0  0 
    2.4048    0.0608    0.0913 C   0  0  0  0  0  0  0  0  0  0  0  0 
    2.5593   -1.2168   -2.1448 C   0  0  0  0  0  0  0  0  0  0  0  0 
    4.5598   -1.0284   -0.6661 C   0  0  0  0  0  0  0  0  0  0  0  0 
    3.0192   -1.1521   -0.6654 C   0  0  0  0  0  0  0  0  0  0  0  0 
    5.2479   -0.9978   -1.6560 O   0  0  0  0  0  0  0  0  0  0  0  0 
    5.1597   -0.9524    0.5571 O   0  0  0  0  0  0  0  0  0  0  0  0 
    2.2966    2.2294    0.1365 H   0  0  0  0  0  0  0  0  0  0  0  0 
    2.4013    1.5669   -1.4981 H   0  0  0  0  0  0  0  0  0  0  0  0 
    3.8400    1.6138   -0.4704 H   0  0  0  0  0  0  0  0  0  0  0  0 
    0.8404   -1.3488   -3.4520 H   0  0  0  0  0  0  0  0  0  0  0  0 
    0.5402   -0.3554   -2.0271 H   0  0  0  0  0  0  0  0  0  0  0  0 
    0.5684   -2.1203   -1.8909 H   0  0  0  0  0  0  0  0  0  0  0  0 
    1.5479   -2.5847    0.0835 H   0  0  0  0  0  0  0  0  0  0  0  0 
    2.9651   -2.4592    1.1190 H   0  0  0  0  0  0  0  0  0  0  0  0 
    3.0753   -3.3326   -0.4164 H   0  0  0  0  0  0  0  0  0  0  0  0 
    1.3158   -0.0675    0.1054 H   0  0  0  0  0  0  0  0  0  0  0  0 
    2.7072    0.0208    1.1488 H   0  0  0  0  0  0  0  0  0  0  0  0 
    2.9848   -0.3632   -2.6810 H   0  0  0  0  0  0  0  0  0  0  0  0 
    3.0249   -2.0987   -2.5991 H   0  0  0  0  0  0  0  0  0  0  0  0 
    4.4918   -0.9891    1.2607 H   0  0  0  0  0  0  0  0  0  0  0  0 
  1  4  1  0  0  0  0 
  1 10  1  0  0  0  0 
  2  5  1  0  0  0  0 
  2 14  1  0  0  0  0 
  2 15  1  0  0  0  0 
  3 16  1  0  0  0  0 
  3 17  1  0  0  0  0 
  4 19  1  0  0  0  0 
  4 20  1  0  0  0  0 
  5  7  1  0  0  0  0 
  6  7  1  0  0  0  0 
  6  9  1  0  0  0  0 
  7  3  1  0  0  0  0 
  7  4  1  0  0  0  0 
  8  6  2  0  0  0  0 
  9 23  1  0  0  0  0 
 11  1  1  0  0  0  0 
 12  1  1  0  0  0  0 
 13  2  1  0  0  0  0 
 18  3  1  0  0  0  0 
 21  5  1  0  0  0  0 
 22  5  1  0  0  0  0 
M  END 
>  <HBA> 
2 
 
>  <HBD> 
1 
 
>  <TPSA> 
37.3 
 
>  <cid> 
29846 
 
>  <dipole> 
4.15 
 
>  <excitation_energy_1> 
5.598 
 
>  <excitation_energy_2> 
6.395 
 
>  <excitation_energy_3> 
7.142 
 
>  <excitation_energy_4> 
7.244 
 
>  <homo_energy> 
-7.14 
 
>  <homo_lumo_gap> 
7.5 
 
>  <logP> 
1.897 
 
>  <lumo_energy> 
0.359 
 
>  <melting_point> 
68.62 
 
>  <molecular_refractivity> 
37.27 
 
>  <oscillator_strength_1> 
0.0018 
 
>  <oscillator_strength_2> 
0.0108 
 
>  <oscillator_strength_3> 
0.0114 
 
>  <oscillator_strength_4> 
0.0135 
 
>  <open_babel_can_smiles> 
CCC(C(=O)O)(CC)C 
 
>  <mulliken_charges> 
23 
1   -0.458188 
2   -0.464469 
3   -0.462252 
4   -0.271118 
5   -0.250923 
6   0.615639 
7   -0.034209 
8   -0.448779 
9   -0.582982 
10   0.149474 
11   0.159231 
12   0.166405 
13   0.152719 
14   0.146398 
15   0.144277 
16   0.161539 
17   0.128322 
18   0.166417 
19   0.150831 
20   0.113388 
21   0.158732 
22   0.149818 
23   0.409728 
 
>  <lowdin_charges> 
23 
1   -0.448906 
2   -0.451037 
3   -0.440356 
4   -0.27154 
5   -0.273287 
6   0.19596 
7   -0.033275 
8   -0.238486 
9   -0.362374 
10   0.156401 
11   0.154509 
12   0.156925 
13   0.155368 
14   0.147693 
15   0.14751 
16   0.156669 
17   0.140268 
18   0.161766 
19   0.149155 
20   0.129976 
21   0.158008 
22   0.155113 
23   0.353938 
 
$$$$ 
 
