PCCDB-ID:  44324 
public computational chemistry database (PCCDB) project, http://pccdb.org 
 
 26 28  0  0  0  0  0  0  0  0999 V2000 
    2.8339    1.3881   -0.9817 C   0  0  0  0  0  0  0  0  0  0  0  0 
    3.2047    0.1273   -0.4511 C   0  0  0  0  0  0  0  0  0  0  0  0 
    1.5208    1.8017   -0.9459 C   0  0  0  0  0  0  0  0  0  0  0  0 
    2.2538   -0.6968    0.1060 C   0  0  0  0  0  0  0  0  0  0  0  0 
   -0.8517    1.3642   -0.3252 C   0  0  0  0  0  0  0  0  0  0  0  0 
   -1.8018    0.5441    0.2347 C   0  0  0  0  0  0  0  0  0  0  0  0 
   -4.5241   -1.5749    2.7055 C   0  0  0  0  0  0  0  0  0  0  0  0 
   -3.9964   -0.1736    2.7057 C   0  0  0  0  0  0  0  0  0  0  0  0 
   -0.1123   -1.1255    0.7251 C   0  0  0  0  0  0  0  0  0  0  0  0 
    0.5150    0.9759   -0.3779 C   0  0  0  0  0  0  0  0  0  0  0  0 
    0.8894   -0.3000    0.1591 C   0  0  0  0  0  0  0  0  0  0  0  0 
   -1.4332   -0.7193    0.7756 C   0  0  0  0  0  0  0  0  0  0  0  0 
   -2.4261   -1.6436    1.4032 C   0  0  0  0  0  0  0  0  0  0  0  0 
   -3.7070   -1.0994    1.6091 N   0  0  0  0  0  0  0  0  0  0  0  0 
   -2.1686   -2.8064    1.6754 O   0  0  0  0  0  0  0  0  0  0  0  0 
    3.5942    2.0298   -1.4188 H   0  0  0  0  0  0  0  0  0  0  0  0 
    4.2446   -0.1855   -0.4871 H   0  0  0  0  0  0  0  0  0  0  0  0 
    1.2364    2.7688   -1.3539 H   0  0  0  0  0  0  0  0  0  0  0  0 
    2.5317   -1.6655    0.5141 H   0  0  0  0  0  0  0  0  0  0  0  0 
   -1.1385    2.3253   -0.7454 H   0  0  0  0  0  0  0  0  0  0  0  0 
   -2.8439    0.8440    0.2504 H   0  0  0  0  0  0  0  0  0  0  0  0 
   -5.5694   -1.7565    2.4668 H   0  0  0  0  0  0  0  0  0  0  0  0 
   -4.0661   -2.2985    3.3763 H   0  0  0  0  0  0  0  0  0  0  0  0 
   -3.1863    0.0606    3.3946 H   0  0  0  0  0  0  0  0  0  0  0  0 
   -4.6476    0.6628    2.4604 H   0  0  0  0  0  0  0  0  0  0  0  0 
    0.1499   -2.0983    1.1306 H   0  0  0  0  0  0  0  0  0  0  0  0 
  1  3  2  0  0  0  0 
  1  2  1  0  0  0  0 
  2  4  2  0  0  0  0 
  3 10  1  0  0  0  0 
  4 11  1  0  0  0  0 
  4 19  1  0  0  0  0 
  5  6  1  0  0  0  0 
  6 21  1  0  0  0  0 
  6 12  2  0  0  0  0 
  7  8  1  0  0  0  0 
  7 23  1  0  0  0  0 
  8 24  1  0  0  0  0 
  9 12  1  0  0  0  0 
  9 26  1  0  0  0  0 
 10  5  2  0  0  0  0 
 10 11  1  0  0  0  0 
 11  9  2  0  0  0  0 
 12 13  1  0  0  0  0 
 13 14  1  0  0  0  0 
 13 15  2  0  0  0  0 
 14  7  1  0  0  0  0 
 14  8  1  0  0  0  0 
 16  1  1  0  0  0  0 
 17  2  1  0  0  0  0 
 18  3  1  0  0  0  0 
 20  5  1  0  0  0  0 
 22  7  1  0  0  0  0 
 25  8  1  0  0  0  0 
M  END 
>  <HBA> 
2 
 
>  <HBD> 
0 
 
>  <TPSA> 
20.08 
 
>  <cid> 
44324 
 
>  <dipole> 
3.01 
 
>  <excitation_energy_1> 
3.914 
 
>  <excitation_energy_2> 
4.166 
 
>  <excitation_energy_3> 
4.306 
 
>  <excitation_energy_4> 
5.011 
 
>  <homo_energy> 
-5.997 
 
>  <homo_lumo_gap> 
4.471 
 
>  <logP> 
2.233 
 
>  <lumo_energy> 
-1.527 
 
>  <melting_point> 
94.17 
 
>  <molecular_refractivity> 
63.65 
 
>  <oscillator_strength_1> 
0.0547 
 
>  <oscillator_strength_2> 
0.02 
 
>  <oscillator_strength_3> 
0.0345 
 
>  <oscillator_strength_4> 
0.5109 
 
>  <open_babel_can_smiles> 
O=C(c1ccc2c(c1)cccc2)N1CC1 
 
>  <mulliken_charges> 
26 
1   -0.130131 
2   -0.139887 
3   -0.19402 
4   -0.179723 
5   -0.199989 
6   -0.173404 
7   -0.187616 
8   -0.199833 
9   -0.239995 
10   0.148997 
11   0.129327 
12   0.078032 
13   0.500318 
14   -0.39749 
15   -0.484593 
16   0.134121 
17   0.134537 
18   0.13269 
19   0.138616 
20   0.132722 
21   0.148803 
22   0.167064 
23   0.181217 
24   0.171877 
25   0.165598 
26   0.162763 
 
>  <lowdin_charges> 
26 
1   -0.152378 
2   -0.1565 
3   -0.156687 
4   -0.148005 
5   -0.157189 
6   -0.151957 
7   -0.219755 
8   -0.223462 
9   -0.124467 
10   0.006526 
11   -0.003514 
12   -0.048473 
13   0.1617 
14   -0.160931 
15   -0.26763 
16   0.161929 
17   0.159581 
18   0.158725 
19   0.1617 
20   0.158834 
21   0.168305 
22   0.163642 
23   0.169578 
24   0.16224 
25   0.162391 
26   0.175797 
 
$$$$ 
 
