PCCDB-ID:  6991 
public computational chemistry database (PCCDB) project, http://pccdb.org 
 
 20 20  0  0  0  0  0  0  0  0999 V2000 
    1.0195    0.0675    0.0352 C   0  0  0  0  0  0  0  0  0  0  0  0 
    5.2576   -2.6130   -0.1951 C   0  0  0  0  0  0  0  0  0  0  0  0 
    3.2411    1.2335   -0.3365 C   0  0  0  0  0  0  0  0  0  0  0  0 
    4.6203    1.1950   -0.4880 C   0  0  0  0  0  0  0  0  0  0  0  0 
    3.2243   -1.1579   -0.1076 C   0  0  0  0  0  0  0  0  0  0  0  0 
    2.5184    0.0506   -0.1417 C   0  0  0  0  0  0  0  0  0  0  0  0 
    4.6152   -1.2472   -0.2467 C   0  0  0  0  0  0  0  0  0  0  0  0 
    5.2969   -0.0260   -0.4395 C   0  0  0  0  0  0  0  0  0  0  0  0 
    6.7576    0.0372   -0.6013 N   0  0  0  0  0  0  0  0  0  0  0  0 
    7.2521    1.1158   -0.9338 O   0  0  0  0  0  0  0  0  0  0  0  0 
    7.4173   -0.9828   -0.3928 O   0  0  0  0  0  0  0  0  0  0  0  0 
    0.6056    1.0623   -0.1543 H   0  0  0  0  0  0  0  0  0  0  0  0 
    0.7392   -0.2218    1.0559 H   0  0  0  0  0  0  0  0  0  0  0  0 
    0.5302   -0.6393   -0.6449 H   0  0  0  0  0  0  0  0  0  0  0  0 
    4.4811   -3.3809   -0.1272 H   0  0  0  0  0  0  0  0  0  0  0  0 
    5.9257   -2.7103    0.6651 H   0  0  0  0  0  0  0  0  0  0  0  0 
    5.8711   -2.8085   -1.0791 H   0  0  0  0  0  0  0  0  0  0  0  0 
    2.7235    2.1882   -0.3706 H   0  0  0  0  0  0  0  0  0  0  0  0 
    5.1941    2.0993   -0.6460 H   0  0  0  0  0  0  0  0  0  0  0  0 
    2.6689   -2.0825    0.0334 H   0  0  0  0  0  0  0  0  0  0  0  0 
  1 13  1  0  0  0  0 
  2 15  1  0  0  0  0 
  2 16  1  0  0  0  0 
  3  6  2  0  0  0  0 
  4  8  2  0  0  0  0 
  4  3  1  0  0  0  0 
  5 20  1  0  0  0  0 
  6  5  1  0  0  0  0 
  6  1  1  0  0  0  0 
  7  2  1  0  0  0  0 
  7  5  2  0  0  0  0 
  8  7  1  0  0  0  0 
  9  8  1  0  0  0  0 
  9 11  2  0  0  0  0 
 10  9  2  0  0  0  0 
 12  1  1  0  0  0  0 
 14  1  1  0  0  0  0 
 17  2  1  0  0  0  0 
 18  3  1  0  0  0  0 
 19  4  1  0  0  0  0 
M  END 
>  <HBA> 
0 
 
>  <HBD> 
0 
 
>  <TPSA> 
45.82 
 
>  <cid> 
6991 
 
>  <dipole> 
4.95 
 
>  <excitation_energy_1> 
3.711 
 
>  <excitation_energy_2> 
4.12 
 
>  <excitation_energy_3> 
4.289 
 
>  <excitation_energy_4> 
4.485 
 
>  <homo_energy> 
-7.181 
 
>  <homo_lumo_gap> 
4.966 
 
>  <logP> 
2.735 
 
>  <lumo_energy> 
-2.215 
 
>  <melting_point> 
51.79 
 
>  <molecular_refractivity> 
45.2 
 
>  <oscillator_strength_1> 
0.0036 
 
>  <oscillator_strength_2> 
0.0278 
 
>  <oscillator_strength_3> 
0.0049 
 
>  <oscillator_strength_4> 
0.2419 
 
>  <open_babel_can_smiles> 
Cc1ccc(c(c1)C)N(=O)=O 
 
>  <mulliken_charges> 
20 
1   -0.534922 
2   -0.501856 
3   -0.19762 
4   -0.145598 
5   -0.255533 
6   0.208403 
7   0.173511 
8   0.208758 
9   0.37202 
10   -0.398676 
11   -0.405156 
12   0.163642 
13   0.174609 
14   0.170772 
15   0.146444 
16   0.186289 
17   0.181006 
18   0.139019 
19   0.18382 
20   0.13107 
 
>  <lowdin_charges> 
20 
1   -0.442373 
2   -0.439918 
3   -0.167529 
4   -0.135587 
5   -0.172992 
6   0.025865 
7   0.026624 
8   -0.011888 
9   0.308192 
10   -0.254672 
11   -0.247646 
12   0.161217 
13   0.167645 
14   0.167635 
15   0.152745 
16   0.17669 
17   0.174114 
18   0.163268 
19   0.188473 
20   0.160138 
 
$$$$ 
 
