PCCDB-ID:  44431 
public computational chemistry database (PCCDB) project, http://pccdb.org 
 
 39 39  0  0  0  0  0  0  0  0999 V2000 
    7.4337    7.0306    1.3996 C   0  0  0  0  0  0  0  0  0  0  0  0 
    6.0436    6.0649    3.0939 C   0  0  0  0  0  0  0  0  0  0  0  0 
    8.7970   -2.5549   -4.1068 C   0  0  0  0  0  0  0  0  0  0  0  0 
    7.6374   -2.8522   -3.3866 C   0  0  0  0  0  0  0  0  0  0  0  0 
    9.6908   -1.6065   -3.6091 C   0  0  0  0  0  0  0  0  0  0  0  0 
    6.8455    0.5452   -0.5062 C   0  0  0  0  0  0  0  0  0  0  0  0 
    7.3764   -2.2019   -2.1808 C   0  0  0  0  0  0  0  0  0  0  0  0 
    9.4246   -0.9583   -2.4008 C   0  0  0  0  0  0  0  0  0  0  0  0 
    7.9518   -0.5232   -0.3723 C   0  0  0  0  0  0  0  0  0  0  0  0 
    7.2484    1.7373   -1.3988 C   0  0  0  0  0  0  0  0  0  0  0  0 
    6.7890    4.5021   -0.2584 C   0  0  0  0  0  0  0  0  0  0  0  0 
    5.9678    5.1681    0.8570 C   0  0  0  0  0  0  0  0  0  0  0  0 
    8.2640   -1.2429   -1.6691 C   0  0  0  0  0  0  0  0  0  0  0  0 
    6.0951    2.6958   -1.6445 C   0  0  0  0  0  0  0  0  0  0  0  0 
    5.8843    3.8568   -1.1879 N   0  0  0  0  0  0  0  0  0  0  0  0 
    6.8013    5.8064    1.8763 N   0  0  0  0  0  0  0  0  0  0  0  0 
    5.1235    2.1914   -2.4752 O   0  0  0  0  0  0  0  0  0  0  0  0 
    8.0701    7.4442    2.1897 H   0  0  0  0  0  0  0  0  0  0  0  0 
    6.7017    7.8100    1.1065 H   0  0  0  0  0  0  0  0  0  0  0  0 
    8.0717    6.8245    0.5353 H   0  0  0  0  0  0  0  0  0  0  0  0 
    6.7078    6.4825    3.8590 H   0  0  0  0  0  0  0  0  0  0  0  0 
    5.6289    5.1272    3.4795 H   0  0  0  0  0  0  0  0  0  0  0  0 
    5.2051    6.7751    2.9480 H   0  0  0  0  0  0  0  0  0  0  0  0 
    9.0037   -3.0630   -5.0447 H   0  0  0  0  0  0  0  0  0  0  0  0 
    6.9390   -3.5960   -3.7614 H   0  0  0  0  0  0  0  0  0  0  0  0 
   10.5987   -1.3716   -4.1585 H   0  0  0  0  0  0  0  0  0  0  0  0 
    6.5836    0.9204    0.4908 H   0  0  0  0  0  0  0  0  0  0  0  0 
    5.9370    0.0748   -0.9045 H   0  0  0  0  0  0  0  0  0  0  0  0 
    6.4758   -2.4488   -1.6216 H   0  0  0  0  0  0  0  0  0  0  0  0 
   10.1313   -0.2261   -2.0163 H   0  0  0  0  0  0  0  0  0  0  0  0 
    7.6316   -1.2530    0.3825 H   0  0  0  0  0  0  0  0  0  0  0  0 
    8.8627   -0.0515    0.0179 H   0  0  0  0  0  0  0  0  0  0  0  0 
    7.6024    1.3655   -2.3707 H   0  0  0  0  0  0  0  0  0  0  0  0 
    8.0930    2.2647   -0.9475 H   0  0  0  0  0  0  0  0  0  0  0  0 
    7.5271    3.8368    0.2156 H   0  0  0  0  0  0  0  0  0  0  0  0 
    7.3528    5.2667   -0.8103 H   0  0  0  0  0  0  0  0  0  0  0  0 
    5.3786    4.3843    1.3470 H   0  0  0  0  0  0  0  0  0  0  0  0 
    5.2439    5.8704    0.4013 H   0  0  0  0  0  0  0  0  0  0  0  0 
    5.4296    1.3484   -2.8437 H   0  0  0  0  0  0  0  0  0  0  0  0 
  1 16  1  0  0  0  0 
  1 18  1  0  0  0  0 
  2 22  1  0  0  0  0 
  2 21  1  0  0  0  0 
  3  5  2  0  0  0  0 
  3  4  1  0  0  0  0 
  4  7  2  0  0  0  0 
  5  8  1  0  0  0  0 
  6  9  1  0  0  0  0 
  6 27  1  0  0  0  0 
  7 13  1  0  0  0  0 
  7 29  1  0  0  0  0 
  8 30  1  0  0  0  0 
  8 13  2  0  0  0  0 
  9 32  1  0  0  0  0 
  9 31  1  0  0  0  0 
 10 34  1  0  0  0  0 
 10  6  1  0  0  0  0 
 11 35  1  0  0  0  0 
 11 12  1  0  0  0  0 
 12 37  1  0  0  0  0 
 12 16  1  0  0  0  0 
 13  9  1  0  0  0  0 
 14 10  1  0  0  0  0 
 14 15  2  0  0  0  0 
 15 11  1  0  0  0  0 
 16  2  1  0  0  0  0 
 17 14  1  0  0  0  0 
 19  1  1  0  0  0  0 
 20  1  1  0  0  0  0 
 23  2  1  0  0  0  0 
 24  3  1  0  0  0  0 
 25  4  1  0  0  0  0 
 26  5  1  0  0  0  0 
 28  6  1  0  0  0  0 
 33 10  1  0  0  0  0 
 36 11  1  0  0  0  0 
 38 12  1  0  0  0  0 
 39 17  1  0  0  0  0 
M  END 
>  <HBA> 
3 
 
>  <HBD> 
1 
 
>  <TPSA> 
32.34 
 
>  <cid> 
44431 
 
>  <dipole> 
3.23 
 
>  <excitation_energy_1> 
4.808 
 
>  <excitation_energy_2> 
4.911 
 
>  <excitation_energy_3> 
5.181 
 
>  <excitation_energy_4> 
5.281 
 
>  <homo_energy> 
-5.57 
 
>  <homo_lumo_gap> 
5.314 
 
>  <logP> 
2.078 
 
>  <lumo_energy> 
-0.256 
 
>  <melting_point> 
53.71 
 
>  <molecular_refractivity> 
70.95 
 
>  <oscillator_strength_1> 
0.0035 
 
>  <oscillator_strength_2> 
0.0001 
 
>  <oscillator_strength_3> 
0.0008 
 
>  <oscillator_strength_4> 
0.0011 
 
>  <open_babel_can_smiles> 
CN(CC/N=C(\CCCc1ccccc1)/O)C 
 
>  <mulliken_charges> 
39 
1   -0.300069 
2   -0.291498 
3   -0.131829 
4   -0.128273 
5   -0.126612 
6   -0.257716 
7   -0.18738 
8   -0.188098 
9   -0.350008 
10   -0.371957 
11   -0.154324 
12   -0.107662 
13   0.169026 
14   0.489627 
15   -0.421355 
16   -0.373796 
17   -0.587329 
18   0.145579 
19   0.11878 
20   0.150467 
21   0.143983 
22   0.146718 
23   0.118128 
24   0.132185 
25   0.132535 
26   0.132609 
27   0.154262 
28   0.139402 
29   0.126333 
30   0.12601 
31   0.152225 
32   0.145275 
33   0.158425 
34   0.161548 
35   0.125399 
36   0.143125 
37   0.135629 
38   0.126025 
39   0.404607 
 
>  <lowdin_charges> 
39 
1   -0.361036 
2   -0.356605 
3   -0.159349 
4   -0.15504 
5   -0.154435 
6   -0.270048 
7   -0.171273 
8   -0.172258 
9   -0.276057 
10   -0.316387 
11   -0.208054 
12   -0.206355 
13   -0.005471 
14   0.124695 
15   -0.203216 
16   -0.187074 
17   -0.374608 
18   0.149979 
19   0.121804 
20   0.149375 
21   0.148385 
22   0.148784 
23   0.120672 
24   0.158875 
25   0.159786 
26   0.159307 
27   0.152442 
28   0.142818 
29   0.155191 
30   0.156329 
31   0.157599 
32   0.150504 
33   0.158307 
34   0.161705 
35   0.128545 
36   0.145492 
37   0.146492 
38   0.127565 
39   0.352613 
 
$$$$ 
 
