PCCDB-ID:  30615 
public computational chemistry database (PCCDB) project, http://pccdb.org 
 
 27 29  0  0  1  0  0  0  0  0999 V2000 
   -2.5975    0.7444   -0.2916 C   0  0  0  0  0  0  0  0  0  0  0  0 
   -2.5523   -0.7786   -0.4911 C   0  0  0  0  0  0  0  0  0  0  0  0 
   -1.7145    1.1883    0.8873 C   0  0  0  0  0  0  0  0  0  0  0  0 
   -1.1105   -1.3019   -0.5983 C   0  0  0  0  0  0  0  0  0  0  0  0 
    0.5210    1.3715   -0.3336 C   0  0  0  0  0  0  0  0  0  0  0  0 
    1.1662   -1.4602    0.5892 C   0  0  0  0  0  0  0  0  0  0  0  0 
   -0.2667    0.6643    0.7896 C   0  0  2  0  0  0  0  0  0  0  0  0 
   -0.2651   -0.8762    0.6189 C   0  0  1  0  0  0  0  0  0  0  0  0 
    1.8830    0.7652   -0.5800 C   0  0  2  0  0  0  0  0  0  0  0  0 
    2.1862   -0.6120   -0.1504 C   0  0  1  0  0  0  0  0  0  0  0  0 
    2.6966    0.5241    0.5768 O   0  0  0  0  0  0  0  0  0  0  0  0 
   -3.6313    1.0719   -0.1227 H   0  0  0  0  0  0  0  0  0  0  0  0 
   -2.2695    1.2415   -1.2150 H   0  0  0  0  0  0  0  0  0  0  0  0 
   -3.1278   -1.0621   -1.3817 H   0  0  0  0  0  0  0  0  0  0  0  0 
   -3.0420   -1.2673    0.3645 H   0  0  0  0  0  0  0  0  0  0  0  0 
   -2.1580    0.8134    1.8210 H   0  0  0  0  0  0  0  0  0  0  0  0 
   -1.7108    2.2839    0.9652 H   0  0  0  0  0  0  0  0  0  0  0  0 
   -0.6501   -0.9388   -1.5285 H   0  0  0  0  0  0  0  0  0  0  0  0 
   -1.1174   -2.3978   -0.6700 H   0  0  0  0  0  0  0  0  0  0  0  0 
    0.6390    2.4348   -0.0821 H   0  0  0  0  0  0  0  0  0  0  0  0 
   -0.0307    1.3425   -1.2820 H   0  0  0  0  0  0  0  0  0  0  0  0 
    1.1421   -2.4627    0.1416 H   0  0  0  0  0  0  0  0  0  0  0  0 
    1.5377   -1.5891    1.6141 H   0  0  0  0  0  0  0  0  0  0  0  0 
    0.2473    0.8956    1.7315 H   0  0  0  0  0  0  0  0  0  0  0  0 
   -0.7657   -1.2964    1.5044 H   0  0  0  0  0  0  0  0  0  0  0  0 
    2.4356    1.1771   -1.4284 H   0  0  0  0  0  0  0  0  0  0  0  0 
    2.9638   -1.1581   -0.6883 H   0  0  0  0  0  0  0  0  0  0  0  0 
  1 12  1  0  0  0  0 
  1  3  1  0  0  0  0 
  2  1  1  0  0  0  0 
  2 15  1  0  0  0  0 
  3 17  1  0  0  0  0 
  3 16  1  0  0  0  0 
  4  2  1  0  0  0  0 
  4  8  1  0  0  0  0 
  5 20  1  0  0  0  0 
  5  7  1  0  0  0  0 
  6  8  1  0  0  0  0 
  6 23  1  0  0  0  0 
  7  3  1  0  0  0  0 
  7 24  1  1  0  0  0 
  8  7  1  0  0  0  0 
  8 25  1  1  0  0  0 
  9 26  1  6  0  0  0 
  9  5  1  0  0  0  0 
  9 10  1  0  0  0  0 
  9 11  1  0  0  0  0 
 10 27  1  6  0  0  0 
 10 11  1  0  0  0  0 
 10  6  1  0  0  0  0 
 13  1  1  0  0  0  0 
 14  2  1  0  0  0  0 
 18  4  1  0  0  0  0 
 19  4  1  0  0  0  0 
 21  5  1  0  0  0  0 
 22  6  1  0  0  0  0 
M  END 
>  <HBA> 
1 
 
>  <HBD> 
0 
 
>  <TPSA> 
12.53 
 
>  <cid> 
30615 
 
>  <dipole> 
1.93 
 
>  <excitation_energy_1> 
6.54 
 
>  <excitation_energy_2> 
6.793 
 
>  <excitation_energy_3> 
6.916 
 
>  <excitation_energy_4> 
6.967 
 
>  <homo_energy> 
-6.92 
 
>  <homo_lumo_gap> 
9.061 
 
>  <logP> 
2.354 
 
>  <lumo_energy> 
2.142 
 
>  <melting_point> 
29.57 
 
>  <molecular_refractivity> 
44.93 
 
>  <oscillator_strength_1> 
0.0137 
 
>  <oscillator_strength_2> 
0.0165 
 
>  <oscillator_strength_3> 
0.0163 
 
>  <oscillator_strength_4> 
0.0017 
 
>  <open_babel_can_smiles> 
C1CC[C@H]2[C@@H](C1)C[C@H]1[C@@H](C2)O1 
 
>  <mulliken_charges> 
27 
1   -0.263017 
2   -0.259323 
3   -0.267467 
4   -0.266358 
5   -0.289699 
6   -0.285943 
7   -0.094437 
8   -0.092678 
9   0.087355 
10   0.07044 
11   -0.464153 
12   0.131753 
13   0.131339 
14   0.129867 
15   0.128027 
16   0.128211 
17   0.128423 
18   0.129772 
19   0.128231 
20   0.144585 
21   0.137661 
22   0.131326 
23   0.153737 
24   0.13859 
25   0.117205 
26   0.130945 
27   0.135608 
 
>  <lowdin_charges> 
27 
1   -0.279989 
2   -0.278899 
3   -0.275929 
4   -0.280417 
5   -0.285475 
6   -0.284397 
7   -0.132872 
8   -0.130698 
9   -0.026071 
10   -0.032519 
11   -0.298606 
12   0.143639 
13   0.137734 
14   0.14384 
15   0.138411 
16   0.140454 
17   0.140428 
18   0.137923 
19   0.139684 
20   0.150953 
21   0.147256 
22   0.147375 
23   0.156852 
24   0.148602 
25   0.138631 
26   0.145773 
27   0.148315 
 
$$$$ 
 
