PCCDB-ID:  8818 
public computational chemistry database (PCCDB) project, http://pccdb.org 
 
 24 24  0  0  0  0  0  0  0  0999 V2000 
   -0.8212   -0.8262    2.2770 C   0  0  0  0  0  0  0  0  0  0  0  0 
    0.7312   -0.8547    2.1552 C   0  0  0  0  0  0  0  0  0  0  0  0 
   -1.2748    0.4775    1.5723 C   0  0  0  0  0  0  0  0  0  0  0  0 
    1.1183    0.4601    1.4371 C   0  0  0  0  0  0  0  0  0  0  0  0 
   -0.2377    0.0868   -0.7315 C   0  0  0  0  0  0  0  0  0  0  0  0 
    0.8044    0.5119   -1.7691 C   0  0  0  0  0  0  0  0  0  0  0  0 
   -0.1266    0.8450    0.6049 C   0  0  0  0  0  0  0  0  0  0  0  0 
    0.6887   -0.2580   -3.0798 C   0  0  0  0  0  0  0  0  0  0  0  0 
   -0.1041   -1.1385   -3.2970 O   0  0  0  0  0  0  0  0  0  0  0  0 
    1.5750    0.1113   -4.0495 O   0  0  0  0  0  0  0  0  0  0  0  0 
   -1.1521   -0.8498    3.3204 H   0  0  0  0  0  0  0  0  0  0  0  0 
   -1.2607   -1.7043    1.7915 H   0  0  0  0  0  0  0  0  0  0  0  0 
    1.0518   -1.7216    1.5667 H   0  0  0  0  0  0  0  0  0  0  0  0 
    1.2250   -0.9422    3.1286 H   0  0  0  0  0  0  0  0  0  0  0  0 
   -1.3893    1.2803    2.3116 H   0  0  0  0  0  0  0  0  0  0  0  0 
   -2.2396    0.3717    1.0633 H   0  0  0  0  0  0  0  0  0  0  0  0 
    2.0344    0.3611    0.8429 H   0  0  0  0  0  0  0  0  0  0  0  0 
    1.3075    1.2492    2.1762 H   0  0  0  0  0  0  0  0  0  0  0  0 
   -0.1571   -0.9951   -0.5733 H   0  0  0  0  0  0  0  0  0  0  0  0 
   -1.2343    0.2498   -1.1589 H   0  0  0  0  0  0  0  0  0  0  0  0 
    1.8255    0.3728   -1.3853 H   0  0  0  0  0  0  0  0  0  0  0  0 
    0.7105    1.5864   -1.9890 H   0  0  0  0  0  0  0  0  0  0  0  0 
   -0.1349    1.9230    0.3902 H   0  0  0  0  0  0  0  0  0  0  0  0 
    2.1429    0.8287   -3.7228 H   0  0  0  0  0  0  0  0  0  0  0  0 
  1 11  1  0  0  0  0 
  2  1  1  0  0  0  0 
  2 14  1  0  0  0  0 
  3  1  1  0  0  0  0 
  3 15  1  0  0  0  0 
  4  2  1  0  0  0  0 
  4 18  1  0  0  0  0 
  5 19  1  0  0  0  0 
  5  7  1  0  0  0  0 
  6 21  1  0  0  0  0 
  6  5  1  0  0  0  0 
  7  4  1  0  0  0  0 
  7  3  1  0  0  0  0 
  8  6  1  0  0  0  0 
  9  8  2  0  0  0  0 
 10 24  1  0  0  0  0 
 10  8  1  0  0  0  0 
 12  1  1  0  0  0  0 
 13  2  1  0  0  0  0 
 16  3  1  0  0  0  0 
 17  4  1  0  0  0  0 
 20  5  1  0  0  0  0 
 22  6  1  0  0  0  0 
 23  7  1  0  0  0  0 
M  END 
>  <HBA> 
2 
 
>  <HBD> 
1 
 
>  <TPSA> 
37.3 
 
>  <cid> 
8818 
 
>  <dipole> 
4.17 
 
>  <excitation_energy_1> 
5.742 
 
>  <excitation_energy_2> 
6.393 
 
>  <excitation_energy_3> 
7.165 
 
>  <excitation_energy_4> 
7.408 
 
>  <homo_energy> 
-7.342 
 
>  <homo_lumo_gap> 
7.676 
 
>  <logP> 
2.041 
 
>  <lumo_energy> 
0.335 
 
>  <melting_point> 
71.85 
 
>  <molecular_refractivity> 
40.23 
 
>  <oscillator_strength_1> 
0.0003 
 
>  <oscillator_strength_2> 
0.0157 
 
>  <oscillator_strength_3> 
0.0017 
 
>  <oscillator_strength_4> 
0.0032 
 
>  <open_babel_can_smiles> 
OC(=O)CCC1CCCC1 
 
>  <mulliken_charges> 
24 
1   -0.27328 
2   -0.273165 
3   -0.272703 
4   -0.274376 
5   -0.251626 
6   -0.411654 
7   -0.095205 
8   0.608817 
9   -0.437382 
10   -0.569933 
11   0.137795 
12   0.14359 
13   0.14039 
14   0.137611 
15   0.13349 
16   0.13587 
17   0.127082 
18   0.135189 
19   0.158026 
20   0.152829 
21   0.166155 
22   0.161222 
23   0.113902 
24   0.407354 
 
>  <lowdin_charges> 
24 
1   -0.287679 
2   -0.288316 
3   -0.282434 
4   -0.286309 
5   -0.269779 
6   -0.320862 
7   -0.13112 
8   0.193737 
9   -0.235782 
10   -0.362331 
11   0.145282 
12   0.146953 
13   0.144527 
14   0.146401 
15   0.143364 
16   0.145274 
17   0.139022 
18   0.144103 
19   0.153773 
20   0.154184 
21   0.159793 
22   0.157403 
23   0.132943 
24   0.357853 
 
$$$$ 
 
