PCCDB-ID:  66952 
public computational chemistry database (PCCDB) project, http://pccdb.org 
 
 18 18  0  0  0  0  0  0  0  0999 V2000 
   -0.6874    1.2144    0.0132 C   0  0  0  0  0  0  0  0  0  0  0  0 
   -0.6888   -1.2131    0.0133 C   0  0  0  0  0  0  0  0  0  0  0  0 
    1.4102   -0.0005   -0.1215 C   0  0  0  0  0  0  0  0  0  0  0  0 
   -1.3869    0.0011    0.0588 C   0  0  0  0  0  0  0  0  0  0  0  0 
    0.7109    1.2134   -0.0791 C   0  0  0  0  0  0  0  0  0  0  0  0 
    0.7096   -1.2135   -0.0791 C   0  0  0  0  0  0  0  0  0  0  0  0 
   -2.7812    0.0018    0.2123 N   0  0  0  0  0  0  0  0  0  0  0  0 
    1.4056    2.4268   -0.1847 N   0  0  0  0  0  0  0  0  0  0  0  0 
    1.4030   -2.4277   -0.1847 N   0  0  0  0  0  0  0  0  0  0  0  0 
   -1.2298    2.1570    0.0489 H   0  0  0  0  0  0  0  0  0  0  0  0 
   -1.2321   -2.1550    0.0493 H   0  0  0  0  0  0  0  0  0  0  0  0 
    2.4950   -0.0011   -0.2057 H   0  0  0  0  0  0  0  0  0  0  0  0 
   -3.2344    0.8355   -0.1428 H   0  0  0  0  0  0  0  0  0  0  0  0 
   -3.2354   -0.8308   -0.1439 H   0  0  0  0  0  0  0  0  0  0  0  0 
    0.9298    3.2150    0.2378 H   0  0  0  0  0  0  0  0  0  0  0  0 
    2.3695    2.3812    0.1235 H   0  0  0  0  0  0  0  0  0  0  0  0 
    0.9258   -3.2156    0.2369 H   0  0  0  0  0  0  0  0  0  0  0  0 
    2.3666   -2.3834    0.1245 H   0  0  0  0  0  0  0  0  0  0  0  0 
  1 10  1  0  0  0  0 
  1  4  2  0  0  0  0 
  2 11  1  0  0  0  0 
  2  4  1  0  0  0  0 
  3  5  2  0  0  0  0 
  3  6  1  0  0  0  0 
  4  7  1  0  0  0  0 
  5  1  1  0  0  0  0 
  6  2  2  0  0  0  0 
  8  5  1  0  0  0  0 
  8 16  1  0  0  0  0 
  8 15  1  0  0  0  0 
  9  6  1  0  0  0  0 
  9 18  1  0  0  0  0 
  9 17  1  0  0  0  0 
 12  3  1  0  0  0  0 
 13  7  1  0  0  0  0 
 14  7  1  0  0  0  0 
M  END 
>  <HBA> 
3 
 
>  <HBD> 
3 
 
>  <TPSA> 
78.06 
 
>  <cid> 
66952 
 
>  <dipole> 
1.16 
 
>  <excitation_energy_1> 
4.447 
 
>  <excitation_energy_2> 
4.463 
 
>  <excitation_energy_3> 
4.635 
 
>  <excitation_energy_4> 
4.756 
 
>  <homo_energy> 
-4.931 
 
>  <homo_lumo_gap> 
5.997 
 
>  <logP> 
2.177 
 
>  <lumo_energy> 
1.067 
 
>  <melting_point> 
152.79 
 
>  <molecular_refractivity> 
39.66 
 
>  <oscillator_strength_1> 
0.0009 
 
>  <oscillator_strength_2> 
0.0019 
 
>  <oscillator_strength_3> 
0.0005 
 
>  <oscillator_strength_4> 
0.0033 
 
>  <open_babel_can_smiles> 
Nc1cc(N)cc(c1)N 
 
>  <mulliken_charges> 
18 
1   -0.238203 
2   -0.238362 
3   -0.240474 
4   0.306768 
5   0.308662 
6   0.308766 
7   -0.791533 
8   -0.791332 
9   -0.791323 
10   0.093758 
11   0.093745 
12   0.093934 
13   0.314574 
14   0.31458 
15   0.314363 
16   0.313858 
17   0.314358 
18   0.313861 
 
>  <lowdin_charges> 
18 
1   -0.273656 
2   -0.273671 
3   -0.271249 
4   0.079561 
5   0.077314 
6   0.077325 
7   -0.495463 
8   -0.491292 
9   -0.491301 
10   0.144696 
11   0.144704 
12   0.142524 
13   0.272449 
14   0.272468 
15   0.272622 
16   0.270171 
17   0.272615 
18   0.270184 
 
$$$$ 
 
