PCCDB-ID:  31455 
public computational chemistry database (PCCDB) project, http://pccdb.org 
 
 34 34  0  0  1  0  0  0  0  0999 V2000 
    1.6820   -2.9220   -0.9181 C   0  0  0  0  0  0  0  0  0  0  0  0 
    4.9744   -2.1864   -2.8024 C   0  0  0  0  0  0  0  0  0  0  0  0 
    4.5489    2.8384    1.5549 C   0  0  0  0  0  0  0  0  0  0  0  0 
    7.4998   -3.0271   -1.2311 C   0  0  0  0  0  0  0  0  0  0  0  0 
    2.4683   -2.1027   -0.2163 C   0  0  0  0  0  0  0  0  0  0  0  0 
    3.1065   -0.8475   -0.7478 C   0  0  0  0  0  0  0  0  0  0  0  0 
    5.0947   -0.7182    0.8415 C   0  0  0  0  0  0  0  0  0  0  0  0 
    5.1379    0.5585   -1.2661 C   0  0  0  0  0  0  0  0  0  0  0  0 
    5.3368   -1.9914   -1.3251 C   0  0  2  0  0  0  0  0  0  0  0  0 
    5.0963    1.6259    0.8336 C   0  0  1  0  0  0  0  0  0  0  0  0 
    4.6583   -0.7741   -0.6433 C   0  0  2  0  0  0  0  0  0  0  0  0 
    6.7526   -1.8297   -1.1720 O   0  0  0  0  0  0  0  0  0  0  0  0 
    4.6141    0.4642    1.4793 O   0  0  0  0  0  0  0  0  0  0  0  0 
    4.6725    1.6798   -0.5134 O   0  0  0  0  0  0  0  0  0  0  0  0 
    1.2269   -3.8020   -0.4711 H   0  0  0  0  0  0  0  0  0  0  0  0 
    1.4489   -2.7356   -1.9650 H   0  0  0  0  0  0  0  0  0  0  0  0 
    3.9070   -2.3884   -2.9252 H   0  0  0  0  0  0  0  0  0  0  0  0 
    5.5158   -3.0433   -3.2162 H   0  0  0  0  0  0  0  0  0  0  0  0 
    5.2389   -1.3067   -3.3979 H   0  0  0  0  0  0  0  0  0  0  0  0 
    4.8649    2.8256    2.6017 H   0  0  0  0  0  0  0  0  0  0  0  0 
    3.4559    2.8261    1.5131 H   0  0  0  0  0  0  0  0  0  0  0  0 
    4.9125    3.7531    1.0786 H   0  0  0  0  0  0  0  0  0  0  0  0 
    8.5361   -2.7646   -1.0013 H   0  0  0  0  0  0  0  0  0  0  0  0 
    7.4716   -3.4958   -2.2255 H   0  0  0  0  0  0  0  0  0  0  0  0 
    7.1455   -3.7623   -0.4911 H   0  0  0  0  0  0  0  0  0  0  0  0 
    2.6472   -2.3315    0.8349 H   0  0  0  0  0  0  0  0  0  0  0  0 
    2.7218    0.0139   -0.1894 H   0  0  0  0  0  0  0  0  0  0  0  0 
    2.8041   -0.7004   -1.7916 H   0  0  0  0  0  0  0  0  0  0  0  0 
    6.1907   -0.7553    0.8989 H   0  0  0  0  0  0  0  0  0  0  0  0 
    4.6945   -1.5594    1.4155 H   0  0  0  0  0  0  0  0  0  0  0  0 
    4.7427    0.6996   -2.2763 H   0  0  0  0  0  0  0  0  0  0  0  0 
    6.2361    0.5677   -1.3167 H   0  0  0  0  0  0  0  0  0  0  0  0 
    5.0255   -2.8933   -0.7715 H   0  0  0  0  0  0  0  0  0  0  0  0 
    6.2036    1.6041    0.8544 H   0  0  0  0  0  0  0  0  0  0  0  0 
  1 15  1  0  0  0  0 
  1  5  2  0  0  0  0 
  2  9  1  0  0  0  0 
  3 20  1  0  0  0  0 
  4 12  1  0  0  0  0 
  4 23  1  0  0  0  0 
  4 25  1  0  0  0  0 
  5 26  1  0  0  0  0 
  6  5  1  0  0  0  0 
  6 27  1  0  0  0  0 
  7 29  1  0  0  0  0 
  7 30  1  0  0  0  0 
  7 13  1  0  0  0  0 
  8 11  1  0  0  0  0 
  8 14  1  0  0  0  0 
  9 12  1  0  0  0  0 
  9 33  1  1  0  0  0 
  9 11  1  0  0  0  0 
 10 34  1  1  0  0  0 
 10 13  1  0  0  0  0 
 10  3  1  0  0  0  0 
 11  6  1  6  0  0  0 
 11  7  1  0  0  0  0 
 14 10  1  0  0  0  0 
 16  1  1  0  0  0  0 
 17  2  1  0  0  0  0 
 18  2  1  0  0  0  0 
 19  2  1  0  0  0  0 
 21  3  1  0  0  0  0 
 22  3  1  0  0  0  0 
 24  4  1  0  0  0  0 
 28  6  1  0  0  0  0 
 31  8  1  0  0  0  0 
 32  8  1  0  0  0  0 
M  END 
>  <HBA> 
3 
 
>  <HBD> 
0 
 
>  <TPSA> 
27.69 
 
>  <cid> 
31455 
 
>  <dipole> 
2.34 
 
>  <excitation_energy_1> 
6.189 
 
>  <excitation_energy_2> 
6.297 
 
>  <excitation_energy_3> 
6.374 
 
>  <excitation_energy_4> 
6.472 
 
>  <homo_energy> 
-6.672 
 
>  <homo_lumo_gap> 
7.2 
 
>  <logP> 
1.977 
 
>  <lumo_energy> 
0.528 
 
>  <melting_point> 
-36.07 
 
>  <molecular_refractivity> 
55.4 
 
>  <oscillator_strength_1> 
0.0002 
 
>  <oscillator_strength_2> 
0.0133 
 
>  <oscillator_strength_3> 
0.0259 
 
>  <oscillator_strength_4> 
0.0946 
 
>  <open_babel_can_smiles> 
C=CC[C@@]1(CO[C@@H](OC1)C)[C@H](OC)C 
 
>  <mulliken_charges> 
34 
1   -0.348217 
2   -0.473123 
3   -0.466193 
4   -0.196723 
5   -0.050444 
6   -0.317627 
7   -0.057125 
8   -0.052966 
9   0.152617 
10   0.361921 
11   0.013641 
12   -0.48308 
13   -0.482619 
14   -0.48501 
15   0.138938 
16   0.134885 
17   0.157102 
18   0.147694 
19   0.154913 
20   0.155476 
21   0.164902 
22   0.155979 
23   0.159372 
24   0.135327 
25   0.131729 
26   0.131504 
27   0.179026 
28   0.134633 
29   0.14891 
30   0.140962 
31   0.142571 
32   0.150837 
33   0.118272 
34   0.101917 
 
>  <lowdin_charges> 
34 
1   -0.346033 
2   -0.460803 
3   -0.446126 
4   -0.280083 
5   -0.145801 
6   -0.278722 
7   -0.143093 
8   -0.136757 
9   0.005574 
10   0.105032 
11   -0.032967 
12   -0.276341 
13   -0.267304 
14   -0.26745 
15   0.158413 
16   0.150962 
17   0.15882 
18   0.155128 
19   0.154937 
20   0.160318 
21   0.162068 
22   0.162124 
23   0.154631 
24   0.132883 
25   0.133627 
26   0.149852 
27   0.17137 
28   0.146301 
29   0.141098 
30   0.147632 
31   0.14757 
32   0.141288 
33   0.132845 
34   0.109009 
 
$$$$ 
 
