PCCDB-ID:  71759 
public computational chemistry database (PCCDB) project, http://pccdb.org 
 
 28 29  0  0  1  0  0  0  0  0999 V2000 
    1.0081   -0.0128    0.1268 C   0  0  0  0  0  0  0  0  0  0  0  0 
    4.3164   -3.5153    0.2669 C   0  0  0  0  0  0  0  0  0  0  0  0 
    3.2057    1.2505   -0.0450 C   0  0  0  0  0  0  0  0  0  0  0  0 
    4.6023    1.2195   -0.0811 C   0  0  0  0  0  0  0  0  0  0  0  0 
    7.0614   -0.6537    3.6046 C   0  0  0  0  0  0  0  0  0  0  0  0 
    6.7937   -0.0539   -0.0330 C   0  0  0  0  0  0  0  0  0  0  0  0 
    8.6485   -0.3854    1.5948 C   0  0  0  0  0  0  0  0  0  0  0  0 
    2.5128    0.0457    0.0612 C   0  0  0  0  0  0  0  0  0  0  0  0 
    5.2867    0.0119   -0.0113 C   0  0  0  0  0  0  0  0  0  0  0  0 
    7.3917   -0.9166    2.2200 C   0  0  2  0  0  0  0  0  0  0  0  0 
    4.4820   -1.1435    0.1065 C   0  0  0  0  0  0  0  0  0  0  0  0 
    6.7966   -0.4636    4.7194 N   0  0  0  0  0  0  0  0  0  0  0  0 
    3.1578   -1.1360    0.1318 N   0  0  0  0  0  0  0  0  0  0  0  0 
    7.3661    0.2298    1.2983 N   0  0  0  0  0  0  0  0  0  0  0  0 
    5.1280   -2.3382    0.1898 O   0  0  0  0  0  0  0  0  0  0  0  0 
    0.5526    0.9272   -0.1985 H   0  0  0  0  0  0  0  0  0  0  0  0 
    0.6769   -0.2130    1.1537 H   0  0  0  0  0  0  0  0  0  0  0  0 
    0.6305   -0.8277   -0.4984 H   0  0  0  0  0  0  0  0  0  0  0  0 
    5.0226   -4.3471    0.2986 H   0  0  0  0  0  0  0  0  0  0  0  0 
    3.6657   -3.5999   -0.6078 H   0  0  0  0  0  0  0  0  0  0  0  0 
    3.6956   -3.5072    1.1673 H   0  0  0  0  0  0  0  0  0  0  0  0 
    2.6686    2.1918   -0.1013 H   0  0  0  0  0  0  0  0  0  0  0  0 
    5.1678    2.1445   -0.1657 H   0  0  0  0  0  0  0  0  0  0  0  0 
    7.1892    0.7172   -0.7040 H   0  0  0  0  0  0  0  0  0  0  0  0 
    7.1229   -1.0314   -0.4159 H   0  0  0  0  0  0  0  0  0  0  0  0 
    9.1140   -1.0232    0.8421 H   0  0  0  0  0  0  0  0  0  0  0  0 
    9.3354    0.2118    2.1889 H   0  0  0  0  0  0  0  0  0  0  0  0 
    7.0218   -1.8687    1.8432 H   0  0  0  0  0  0  0  0  0  0  0  0 
  1 17  1  0  0  0  0 
  2 19  1  0  0  0  0 
  2 21  1  0  0  0  0 
  3  8  2  0  0  0  0 
  4  3  1  0  0  0  0 
  4  9  2  0  0  0  0 
  5 12  3  0  0  0  0 
  6  9  1  0  0  0  0 
  6 14  1  0  0  0  0 
  7 27  1  0  0  0  0 
  7 10  1  0  0  0  0 
  8  1  1  0  0  0  0 
  8 13  1  0  0  0  0 
  9 11  1  0  0  0  0 
 10 28  1  6  0  0  0 
 10  5  1  0  0  0  0 
 11 13  2  0  0  0  0 
 11 15  1  0  0  0  0 
 14  7  1  0  0  0  0 
 14 10  1  0  0  0  0 
 15  2  1  0  0  0  0 
 16  1  1  0  0  0  0 
 18  1  1  0  0  0  0 
 20  2  1  0  0  0  0 
 22  3  1  0  0  0  0 
 23  4  1  0  0  0  0 
 24  6  1  0  0  0  0 
 25  6  1  0  0  0  0 
 26  7  1  0  0  0  0 
M  END 
>  <HBA> 
4 
 
>  <HBD> 
0 
 
>  <TPSA> 
48.92 
 
>  <cid> 
71759 
 
>  <dipole> 
4.61 
 
>  <excitation_energy_1> 
4.888 
 
>  <excitation_energy_2> 
5.25 
 
>  <excitation_energy_3> 
5.476 
 
>  <excitation_energy_4> 
5.685 
 
>  <homo_energy> 
-6.299 
 
>  <homo_lumo_gap> 
5.597 
 
>  <logP> 
1.044 
 
>  <lumo_energy> 
-0.702 
 
>  <melting_point> 
76.8 
 
>  <molecular_refractivity> 
59.53 
 
>  <oscillator_strength_1> 
0.1391 
 
>  <oscillator_strength_2> 
0.003 
 
>  <oscillator_strength_3> 
0.0044 
 
>  <oscillator_strength_4> 
0.0903 
 
>  <open_babel_can_smiles> 
COc1nc(C)ccc1CN1C[C@H]1C#N 
 
>  <mulliken_charges> 
28 
1   -0.507187 
2   -0.203591 
3   -0.182673 
4   -0.135003 
5   0.366267 
6   -0.231705 
7   -0.182257 
8   0.311508 
9   0.106951 
10   -0.090331 
11   0.512812 
12   -0.473832 
13   -0.557981 
14   -0.342362 
15   -0.511482 
16   0.152989 
17   0.174252 
18   0.16993 
19   0.157096 
20   0.165667 
21   0.169125 
22   0.13202 
23   0.145421 
24   0.159549 
25   0.148411 
26   0.158924 
27   0.180866 
28   0.206615 
 
>  <lowdin_charges> 
28 
1   -0.444783 
2   -0.276787 
3   -0.204705 
4   -0.115618 
5   -0.009615 
6   -0.196107 
7   -0.224231 
8   0.070763 
9   -0.056826 
10   -0.103654 
11   0.132383 
12   -0.121071 
13   -0.189708 
14   -0.16912 
15   -0.206552 
16   0.15699 
17   0.168863 
18   0.168987 
19   0.156265 
20   0.15699 
21   0.158163 
22   0.163169 
23   0.166608 
24   0.15951 
25   0.143483 
26   0.158234 
27   0.174619 
28   0.18375 
 
$$$$ 
 
