PCCDB-ID:  31265 
public computational chemistry database (PCCDB) project, http://pccdb.org 
 
 26 25  0  0  0  0  0  0  0  0999 V2000 
    0.7241   -0.0334   -0.0884 C   0  0  0  0  0  0  0  0  0  0  0  0 
    8.8040    4.7096   -0.1500 C   0  0  0  0  0  0  0  0  0  0  0  0 
    2.2544    0.0200   -0.0383 C   0  0  0  0  0  0  0  0  0  0  0  0 
    8.3133    4.1737   -1.4867 C   0  0  0  0  0  0  0  0  0  0  0  0 
    2.8301    1.3420   -0.5622 C   0  0  0  0  0  0  0  0  0  0  0  0 
    4.3616    1.3966   -0.5128 C   0  0  0  0  0  0  0  0  0  0  0  0 
    4.9240    2.7195   -1.0365 C   0  0  0  0  0  0  0  0  0  0  0  0 
    6.4387    2.7857   -0.9895 C   0  0  0  0  0  0  0  0  0  0  0  0 
    7.1687    1.9097   -0.5765 O   0  0  0  0  0  0  0  0  0  0  0  0 
    6.8804    3.9686   -1.4802 O   0  0  0  0  0  0  0  0  0  0  0  0 
    0.3445   -0.9896    0.2894 H   0  0  0  0  0  0  0  0  0  0  0  0 
    0.3567    0.0888   -1.1148 H   0  0  0  0  0  0  0  0  0  0  0  0 
    0.2792    0.7648    0.5187 H   0  0  0  0  0  0  0  0  0  0  0  0 
    9.8767    4.9277   -0.2066 H   0  0  0  0  0  0  0  0  0  0  0  0 
    8.6459    3.9710    0.6410 H   0  0  0  0  0  0  0  0  0  0  0  0 
    8.2788    5.6329    0.1160 H   0  0  0  0  0  0  0  0  0  0  0  0 
    2.6702   -0.8120   -0.6239 H   0  0  0  0  0  0  0  0  0  0  0  0 
    2.5939   -0.1373    0.9952 H   0  0  0  0  0  0  0  0  0  0  0  0 
    8.8039    3.2302   -1.7381 H   0  0  0  0  0  0  0  0  0  0  0  0 
    8.4797    4.8939   -2.2919 H   0  0  0  0  0  0  0  0  0  0  0  0 
    2.4128    2.1754    0.0232 H   0  0  0  0  0  0  0  0  0  0  0  0 
    2.4895    1.4997   -1.5967 H   0  0  0  0  0  0  0  0  0  0  0  0 
    4.7842    0.5698   -1.0974 H   0  0  0  0  0  0  0  0  0  0  0  0 
    4.7089    1.2410    0.5163 H   0  0  0  0  0  0  0  0  0  0  0  0 
    4.5344    3.5711   -0.4620 H   0  0  0  0  0  0  0  0  0  0  0  0 
    4.6114    2.9022   -2.0735 H   0  0  0  0  0  0  0  0  0  0  0  0 
  1  3  1  0  0  0  0 
  1 11  1  0  0  0  0 
  1 13  1  0  0  0  0 
  2 16  1  0  0  0  0 
  2 15  1  0  0  0  0 
  3 18  1  0  0  0  0 
  4 10  1  0  0  0  0 
  4  2  1  0  0  0  0 
  5  6  1  0  0  0  0 
  5  3  1  0  0  0  0 
  5 21  1  0  0  0  0 
  6 24  1  0  0  0  0 
  7  8  1  0  0  0  0 
  7  6  1  0  0  0  0 
  7 25  1  0  0  0  0 
  8  9  2  0  0  0  0 
 10  8  1  0  0  0  0 
 12  1  1  0  0  0  0 
 14  2  1  0  0  0  0 
 17  3  1  0  0  0  0 
 19  4  1  0  0  0  0 
 20  4  1  0  0  0  0 
 22  5  1  0  0  0  0 
 23  6  1  0  0  0  0 
 26  7  1  0  0  0  0 
M  END 
>  <HBA> 
2 
 
>  <HBD> 
0 
 
>  <TPSA> 
26.3 
 
>  <cid> 
31265 
 
>  <dipole> 
1.52 
 
>  <excitation_energy_1> 
5.839 
 
>  <excitation_energy_2> 
7.013 
 
>  <excitation_energy_3> 
7.49 
 
>  <excitation_energy_4> 
7.598 
 
>  <homo_energy> 
-7.257 
 
>  <homo_lumo_gap> 
7.739 
 
>  <logP> 
2.13 
 
>  <lumo_energy> 
0.482 
 
>  <melting_point> 
-15.45 
 
>  <molecular_refractivity> 
41.85 
 
>  <oscillator_strength_1> 
0.0006 
 
>  <oscillator_strength_2> 
0.0168 
 
>  <oscillator_strength_3> 
0.0313 
 
>  <oscillator_strength_4> 
0.0415 
 
>  <open_babel_can_smiles> 
CCCCCC(=O)OCC 
 
>  <mulliken_charges> 
26 
1   -0.441902 
2   -0.461483 
3   -0.247421 
4   -0.042976 
5   -0.249974 
6   -0.248025 
7   -0.363068 
8   0.624515 
9   -0.481582 
10   -0.465469 
11   0.14297 
12   0.141114 
13   0.141083 
14   0.149414 
15   0.175654 
16   0.155826 
17   0.133073 
18   0.132985 
19   0.169034 
20   0.150783 
21   0.126115 
22   0.126306 
23   0.147657 
24   0.147659 
25   0.168712 
26   0.168998 
 
>  <lowdin_charges> 
26 
1   -0.444803 
2   -0.454364 
3   -0.271353 
4   -0.128025 
5   -0.274928 
6   -0.270698 
7   -0.300995 
8   0.200439 
9   -0.270556 
10   -0.202582 
11   0.149978 
12   0.145273 
13   0.147155 
14   0.156715 
15   0.165686 
16   0.155492 
17   0.141315 
18   0.139338 
19   0.158112 
20   0.151989 
21   0.137718 
22   0.135891 
23   0.150908 
24   0.148997 
25   0.167487 
26   0.165811 
 
$$$$ 
 
