PCCDB-ID:  65154 
public computational chemistry database (PCCDB) project, http://pccdb.org 
 
 17 18  0  0  0  0  0  0  0  0999 V2000 
   -0.3192   -0.6757   -0.0027 C   0  0  0  0  0  0  0  0  0  0  0  0 
   -0.2963    0.6969   -0.0471 C   0  0  0  0  0  0  0  0  0  0  0  0 
    0.9499   -1.3333    0.0154 C   0  0  0  0  0  0  0  0  0  0  0  0 
    2.1263    0.6955   -0.0498 C   0  0  0  0  0  0  0  0  0  0  0  0 
   -2.3546   -0.0775   -0.0204 C   0  0  0  0  0  0  0  0  0  0  0  0 
    3.2525    1.3087   -0.0712 N   0  0  0  0  0  0  0  0  0  0  0  0 
   -1.6312   -1.1564    0.0130 N   0  0  0  0  0  0  0  0  0  0  0  0 
    0.8625    1.4041   -0.0694 N   0  0  0  0  0  0  0  0  0  0  0  0 
   -1.6141    1.0963   -0.0574 N   0  0  0  0  0  0  0  0  0  0  0  0 
    2.0737   -0.6867   -0.0066 N   0  0  0  0  0  0  0  0  0  0  0  0 
    0.9935   -2.6801    0.0567 O   0  0  0  0  0  0  0  0  0  0  0  0 
   -3.6943    0.0276   -0.0223 O   0  0  0  0  0  0  0  0  0  0  0  0 
    3.1239    2.3232   -0.1045 H   0  0  0  0  0  0  0  0  0  0  0  0 
    0.8760    2.4139   -0.1033 H   0  0  0  0  0  0  0  0  0  0  0  0 
   -1.9945    2.0310   -0.0904 H   0  0  0  0  0  0  0  0  0  0  0  0 
    0.0759   -3.0052    0.0671 H   0  0  0  0  0  0  0  0  0  0  0  0 
   -4.0457   -0.8786    0.0071 H   0  0  0  0  0  0  0  0  0  0  0  0 
  1  7  1  0  0  0  0 
  1  3  1  0  0  0  0 
  2  1  2  0  0  0  0 
  3 11  1  0  0  0  0 
  4 10  2  0  0  0  0 
  5  7  2  0  0  0  0 
  6  4  1  0  0  0  0 
  8  4  1  0  0  0  0 
  8  2  1  0  0  0  0 
  9  2  1  0  0  0  0 
  9  5  1  0  0  0  0 
 10  3  2  0  0  0  0 
 11 16  1  0  0  0  0 
 12  5  1  0  0  0  0 
 12 17  1  0  0  0  0 
 13  6  1  0  0  0  0 
 14  8  1  0  0  0  0 
 15  9  1  0  0  0  0 
M  RAD  1   6   2 
M  END 
>  <HBA> 
4 
 
>  <HBD> 
4 
 
>  <TPSA> 
120.42 
 
>  <cid> 
65154 
 
>  <dipole> 
8.83 
 
>  <excitation_energy_1> 
3.907 
 
>  <excitation_energy_2> 
4.089 
 
>  <excitation_energy_3> 
4.398 
 
>  <excitation_energy_4> 
5.045 
 
>  <homo_energy> 
-5.249 
 
>  <homo_lumo_gap> 
4.765 
 
>  <logP> 
-0.897 
 
>  <lumo_energy> 
-0.484 
 
>  <melting_point> 
326.03 
 
>  <molecular_refractivity> 
41.74 
 
>  <oscillator_strength_1> 
0.0001 
 
>  <oscillator_strength_2> 
0.0791 
 
>  <oscillator_strength_3> 
0.0 
 
>  <oscillator_strength_4> 
0.0022 
 
>  <open_babel_can_smiles> 
[NH]C1=[N]=C(c2c(N1)[nH]c(n2)O)O 
 
>  <mulliken_charges> 
17 
1   0.129539 
2   0.659398 
3   0.517448 
4   0.600362 
5   0.702311 
6   -0.620207 
7   -0.577565 
8   -0.759475 
9   -0.718207 
10   -0.510798 
11   -0.591346 
12   -0.619144 
13   0.252136 
14   0.324177 
15   0.347843 
16   0.427679 
17   0.435847 
 
>  <lowdin_charges> 
17 
1   -0.096635 
2   0.088814 
3   0.155195 
4   0.13285 
5   0.146506 
6   -0.429383 
7   -0.239125 
8   -0.252647 
9   -0.20948 
10   -0.191608 
11   -0.332071 
12   -0.352588 
13   0.235283 
14   0.288399 
15   0.307545 
16   0.367216 
17   0.381728 
 
$$$$ 
 
