PCCDB-ID:  12333 
public computational chemistry database (PCCDB) project, http://pccdb.org 
 
 19 18  0  0  0  0  0  0  0  0999 V2000 
    3.3707    1.4853   -0.0124 C   0  0  0  0  0  0  0  0  0  0  0  0 
    3.9536   -3.2139    2.0066 C   0  0  0  0  0  0  0  0  0  0  0  0 
    3.2787   -0.0299   -0.2197 C   0  0  0  0  0  0  0  0  0  0  0  0 
    3.5713   -2.3717    0.7851 C   0  0  0  0  0  0  0  0  0  0  0  0 
    3.6942   -0.8587    1.0014 C   0  0  0  0  0  0  0  0  0  0  0  0 
    5.1416   -0.5324    1.3423 N   0  0  0  0  0  0  0  0  0  0  0  0 
    5.3708   -0.0375    2.4420 O   0  0  0  0  0  0  0  0  0  0  0  0 
    5.9895   -0.7881    0.4896 O   0  0  0  0  0  0  0  0  0  0  0  0 
    3.0246    2.0144   -0.9064 H   0  0  0  0  0  0  0  0  0  0  0  0 
    4.4007    1.8039    0.1810 H   0  0  0  0  0  0  0  0  0  0  0  0 
    2.7533    1.8128    0.8320 H   0  0  0  0  0  0  0  0  0  0  0  0 
    3.8090   -4.2787    1.7968 H   0  0  0  0  0  0  0  0  0  0  0  0 
    3.3407   -2.9567    2.8783 H   0  0  0  0  0  0  0  0  0  0  0  0 
    5.0044   -3.0712    2.2811 H   0  0  0  0  0  0  0  0  0  0  0  0 
    3.8955   -0.3365   -1.0720 H   0  0  0  0  0  0  0  0  0  0  0  0 
    2.2446   -0.3114   -0.4556 H   0  0  0  0  0  0  0  0  0  0  0  0 
    2.5277   -2.5682    0.5086 H   0  0  0  0  0  0  0  0  0  0  0  0 
    4.1877   -2.6490   -0.0773 H   0  0  0  0  0  0  0  0  0  0  0  0 
    3.1440   -0.5452    1.8922 H   0  0  0  0  0  0  0  0  0  0  0  0 
  1 10  1  0  0  0  0 
  1 11  1  0  0  0  0 
  2 14  1  0  0  0  0 
  2 13  1  0  0  0  0 
  3  1  1  0  0  0  0 
  3  5  1  0  0  0  0 
  4  5  1  0  0  0  0 
  4  2  1  0  0  0  0 
  5  6  1  0  0  0  0 
  5 19  1  0  0  0  0 
  6  7  2  0  0  0  0 
  8  6  2  0  0  0  0 
  9  1  1  0  0  0  0 
 12  2  1  0  0  0  0 
 15  3  1  0  0  0  0 
 16  3  1  0  0  0  0 
 17  4  1  0  0  0  0 
 18  4  1  0  0  0  0 
M  END 
>  <HBA> 
0 
 
>  <HBD> 
0 
 
>  <TPSA> 
45.82 
 
>  <cid> 
12333 
 
>  <dipole> 
3.65 
 
>  <excitation_energy_1> 
4.107 
 
>  <excitation_energy_2> 
4.389 
 
>  <excitation_energy_3> 
6.454 
 
>  <excitation_energy_4> 
6.629 
 
>  <homo_energy> 
-7.799 
 
>  <homo_lumo_gap> 
6.123 
 
>  <logP> 
1.975 
 
>  <lumo_energy> 
-1.676 
 
>  <melting_point> 
4.86 
 
>  <molecular_refractivity> 
34.25 
 
>  <oscillator_strength_1> 
0.0002 
 
>  <oscillator_strength_2> 
0.0003 
 
>  <oscillator_strength_3> 
0.0204 
 
>  <oscillator_strength_4> 
0.0053 
 
>  <open_babel_can_smiles> 
CCC(N(=O)=O)CC 
 
>  <mulliken_charges> 
19 
1   -0.457884 
2   -0.45788 
3   -0.271443 
4   -0.271441 
5   0.00217 
6   0.449925 
7   -0.375947 
8   -0.378524 
9   0.155725 
10   0.169067 
11   0.152442 
12   0.155724 
13   0.152489 
14   0.169067 
15   0.16961 
16   0.149852 
17   0.149906 
18   0.169633 
19   0.167508 
 
>  <lowdin_charges> 
19 
1   -0.448982 
2   -0.446456 
3   -0.277046 
4   -0.27604 
5   -0.081226 
6   0.293463 
7   -0.242427 
8   -0.25401 
9   0.158874 
10   0.158454 
11   0.153438 
12   0.156812 
13   0.153251 
14   0.158105 
15   0.161596 
16   0.153851 
17   0.153628 
18   0.161449 
19   0.163266 
 
$$$$ 
 
