PCCDB-ID:  66724 
public computational chemistry database (PCCDB) project, http://pccdb.org 
 
 25 26  0  0  0  0  0  0  0  0999 V2000 
   -1.4260   -0.0658    0.6174 C   0  0  0  0  0  0  0  0  0  0  0  0 
   -0.9053    0.9838   -0.1416 C   0  0  0  0  0  0  0  0  0  0  0  0 
   -0.5692   -1.0565    1.1005 C   0  0  0  0  0  0  0  0  0  0  0  0 
    0.4604    1.0428   -0.4142 C   0  0  0  0  0  0  0  0  0  0  0  0 
    0.7962   -0.9987    0.8260 C   0  0  0  0  0  0  0  0  0  0  0  0 
    3.5261   -1.0531   -0.4903 C   0  0  0  0  0  0  0  0  0  0  0  0 
    3.4687    1.3474   -0.2518 C   0  0  0  0  0  0  0  0  0  0  0  0 
    4.8884   -0.9977   -0.7657 C   0  0  0  0  0  0  0  0  0  0  0  0 
    4.8286    1.4089   -0.5277 C   0  0  0  0  0  0  0  0  0  0  0  0 
    1.3350    0.0522    0.0643 C   0  0  0  0  0  0  0  0  0  0  0  0 
    2.7889    0.1154   -0.2279 C   0  0  0  0  0  0  0  0  0  0  0  0 
    5.5518    0.2368   -0.7873 C   0  0  0  0  0  0  0  0  0  0  0  0 
    7.0022    0.3580   -1.0765 C   0  0  0  0  0  0  0  0  0  0  0  0 
    7.6022   -0.8401   -1.3069 O   0  0  0  0  0  0  0  0  0  0  0  0 
    7.6225    1.4028   -1.1120 O   0  0  0  0  0  0  0  0  0  0  0  0 
   -2.4904   -0.1112    0.8308 H   0  0  0  0  0  0  0  0  0  0  0  0 
   -1.5647    1.7558   -0.5292 H   0  0  0  0  0  0  0  0  0  0  0  0 
   -0.9629   -1.8733    1.6996 H   0  0  0  0  0  0  0  0  0  0  0  0 
    0.8509    1.8500   -1.0274 H   0  0  0  0  0  0  0  0  0  0  0  0 
    1.4574   -1.7604    1.2294 H   0  0  0  0  0  0  0  0  0  0  0  0 
    3.0182   -2.0129   -0.5048 H   0  0  0  0  0  0  0  0  0  0  0  0 
    2.9269    2.2608   -0.0250 H   0  0  0  0  0  0  0  0  0  0  0  0 
    5.4399   -1.9079   -0.9736 H   0  0  0  0  0  0  0  0  0  0  0  0 
    5.3545    2.3580   -0.5391 H   0  0  0  0  0  0  0  0  0  0  0  0 
    8.5384   -0.6326   -1.4828 H   0  0  0  0  0  0  0  0  0  0  0  0 
  1 16  1  0  0  0  0 
  1  3  2  0  0  0  0 
  2  1  1  0  0  0  0 
  3 18  1  0  0  0  0 
  4  2  2  0  0  0  0 
  4 10  1  0  0  0  0 
  5  3  1  0  0  0  0 
  5 20  1  0  0  0  0 
  6 11  2  0  0  0  0 
  7 11  1  0  0  0  0 
  7 22  1  0  0  0  0 
  8  6  1  0  0  0  0 
  9  7  2  0  0  0  0 
 10  5  2  0  0  0  0 
 11 10  1  0  0  0  0 
 12  8  2  0  0  0  0 
 12  9  1  0  0  0  0 
 13 12  1  0  0  0  0 
 14 13  1  0  0  0  0 
 15 13  2  0  0  0  0 
 17  2  1  0  0  0  0 
 19  4  1  0  0  0  0 
 21  6  1  0  0  0  0 
 23  8  1  0  0  0  0 
 24  9  1  0  0  0  0 
 25 14  1  0  0  0  0 
M  END 
>  <HBA> 
2 
 
>  <HBD> 
1 
 
>  <TPSA> 
37.3 
 
>  <cid> 
66724 
 
>  <dipole> 
2.31 
 
>  <excitation_energy_1> 
4.342 
 
>  <excitation_energy_2> 
4.644 
 
>  <excitation_energy_3> 
4.677 
 
>  <excitation_energy_4> 
4.789 
 
>  <homo_energy> 
-6.351 
 
>  <homo_lumo_gap> 
4.808 
 
>  <logP> 
3.052 
 
>  <lumo_energy> 
-1.543 
 
>  <melting_point> 
132.92 
 
>  <molecular_refractivity> 
58.84 
 
>  <oscillator_strength_1> 
0.5892 
 
>  <oscillator_strength_2> 
0.0033 
 
>  <oscillator_strength_3> 
0.0149 
 
>  <oscillator_strength_4> 
0.0019 
 
>  <open_babel_can_smiles> 
OC(=O)c1ccc(cc1)c1ccccc1 
 
>  <mulliken_charges> 
25 
1   -0.124783 
2   -0.133674 
3   -0.133616 
4   -0.171793 
5   -0.171812 
6   -0.180882 
7   -0.182106 
8   -0.167669 
9   -0.162903 
10   0.087416 
11   0.099165 
12   0.075566 
13   0.535544 
14   -0.584437 
15   -0.475912 
16   0.133457 
17   0.134359 
18   0.13401 
19   0.136396 
20   0.13546 
21   0.139529 
22   0.140843 
23   0.161116 
24   0.165356 
25   0.41137 
 
>  <lowdin_charges> 
25 
1   -0.151716 
2   -0.154298 
3   -0.153513 
4   -0.158972 
5   -0.160161 
6   -0.162576 
7   -0.162281 
8   -0.136429 
9   -0.126957 
10   -0.004314 
11   0.016599 
12   -0.050054 
13   0.195027 
14   -0.36126 
15   -0.274762 
16   0.158178 
17   0.161207 
18   0.160686 
19   0.161946 
20   0.161903 
21   0.163056 
22   0.164193 
23   0.17473 
24   0.17803 
25   0.361739 
 
$$$$ 
 
