PCCDB-ID:  27932 
public computational chemistry database (PCCDB) project, http://pccdb.org 
 
 15 14  0  0  0  0  0  0  0  0999 V2000 
    1.2967    0.7071    0.1060 C   0  0  0  0  0  0  0  0  0  0  0  0 
    5.5533    0.0036   -0.1533 C   0  0  0  0  0  0  0  0  0  0  0  0 
    2.7744    0.4669    0.0480 C   0  0  0  0  0  0  0  0  0  0  0  0 
    5.4625    0.2816    2.2943 C   0  0  0  0  0  0  0  0  0  0  0  0 
    3.4640    0.4740    1.1274 N   0  0  0  0  0  0  0  0  0  0  0  0 
    4.8153    0.2539    1.0733 N   0  0  0  0  0  0  0  0  0  0  0  0 
    6.6563    0.1066    2.4464 O   0  0  0  0  0  0  0  0  0  0  0  0 
    1.0200    1.5882   -0.4880 H   0  0  0  0  0  0  0  0  0  0  0  0 
    0.9773    0.8625    1.1394 H   0  0  0  0  0  0  0  0  0  0  0  0 
    0.7453   -0.1451   -0.3125 H   0  0  0  0  0  0  0  0  0  0  0  0 
    6.5963   -0.1343    0.1315 H   0  0  0  0  0  0  0  0  0  0  0  0 
    5.4663    0.8531   -0.8414 H   0  0  0  0  0  0  0  0  0  0  0  0 
    5.1833   -0.8997   -0.6530 H   0  0  0  0  0  0  0  0  0  0  0  0 
    3.2161    0.2917   -0.9370 H   0  0  0  0  0  0  0  0  0  0  0  0 
    4.7485    0.4835    3.1091 H   0  0  0  0  0  0  0  0  0  0  0  0 
  1  9  1  0  0  0  0 
  2 11  1  0  0  0  0 
  2  6  1  0  0  0  0 
  3  1  1  0  0  0  0 
  3  5  2  0  0  0  0 
  4  7  2  0  0  0  0 
  4 15  1  0  0  0  0 
  6  5  1  0  0  0  0 
  6  4  1  0  0  0  0 
  8  1  1  0  0  0  0 
 10  1  1  0  0  0  0 
 12  2  1  0  0  0  0 
 13  2  1  0  0  0  0 
 14  3  1  0  0  0  0 
M  END 
>  <HBA> 
3 
 
>  <HBD> 
0 
 
>  <TPSA> 
32.67 
 
>  <cid> 
27932 
 
>  <dipole> 
4.03 
 
>  <excitation_energy_1> 
5.324 
 
>  <excitation_energy_2> 
5.737 
 
>  <excitation_energy_3> 
5.887 
 
>  <excitation_energy_4> 
6.044 
 
>  <homo_energy> 
-6.471 
 
>  <homo_lumo_gap> 
6.117 
 
>  <logP> 
0.716 
 
>  <lumo_energy> 
-0.354 
 
>  <melting_point> 
16.66 
 
>  <molecular_refractivity> 
28.51 
 
>  <oscillator_strength_1> 
0.0007 
 
>  <oscillator_strength_2> 
0.5138 
 
>  <oscillator_strength_3> 
0.0125 
 
>  <oscillator_strength_4> 
0.0012 
 
>  <open_babel_can_smiles> 
C/C=N/N(C=O)C 
 
>  <mulliken_charges> 
15 
1   -0.490356 
2   -0.340915 
3   0.072251 
4   0.371737 
5   -0.232402 
6   -0.245914 
7   -0.457599 
8   0.163683 
9   0.179082 
10   0.16346 
11   0.210918 
12   0.167905 
13   0.167807 
14   0.132535 
15   0.137808 
 
>  <lowdin_charges> 
15 
1   -0.443089 
2   -0.370186 
3   -0.11759 
4   0.046594 
5   -0.094593 
6   -0.030893 
7   -0.277823 
8   0.163811 
9   0.17029 
10   0.164044 
11   0.190018 
12   0.158433 
13   0.158229 
14   0.139577 
15   0.143177 
 
$$$$ 
 
