PCCDB-ID:  8065 
public computational chemistry database (PCCDB) project, http://pccdb.org 
 
 14 13  0  0  0  0  0  0  0  0999 V2000 
    1.1685   -0.0899    0.0301 C   0  0  0  0  0  0  0  0  0  0  0  0 
    0.3070   -1.0940   -0.1604 C   0  0  0  0  0  0  0  0  0  0  0  0 
    2.6595   -0.2494    0.1329 C   0  0  0  0  0  0  0  0  0  0  0  0 
   -1.1839   -0.9338   -0.2642 C   0  0  0  0  0  0  0  0  0  0  0  0 
    3.3560    0.5697   -0.8064 O   0  0  0  0  0  0  0  0  0  0  0  0 
   -1.7041   -1.4918   -1.4710 O   0  0  0  0  0  0  0  0  0  0  0  0 
    0.8011    0.9345    0.1141 H   0  0  0  0  0  0  0  0  0  0  0  0 
    0.6757   -2.1164   -0.2611 H   0  0  0  0  0  0  0  0  0  0  0  0 
    2.9365   -1.3108    0.0295 H   0  0  0  0  0  0  0  0  0  0  0  0 
    3.0144    0.0862    1.1145 H   0  0  0  0  0  0  0  0  0  0  0  0 
   -1.4607    0.1272   -0.1557 H   0  0  0  0  0  0  0  0  0  0  0  0 
   -1.6861   -1.4858    0.5391 H   0  0  0  0  0  0  0  0  0  0  0  0 
    3.0481    0.3113   -1.6894 H   0  0  0  0  0  0  0  0  0  0  0  0 
   -1.2631   -1.0366   -2.2056 H   0  0  0  0  0  0  0  0  0  0  0  0 
  1  7  1  0  0  0  0 
  1  3  1  0  0  0  0 
  2  1  2  0  0  0  0 
  3 10  1  0  0  0  0 
  4  2  1  0  0  0  0 
  4 11  1  0  0  0  0 
  4 12  1  0  0  0  0 
  5  3  1  0  0  0  0 
  6  4  1  0  0  0  0 
  8  2  1  0  0  0  0 
  9  3  1  0  0  0  0 
 13  5  1  0  0  0  0 
 14  6  1  0  0  0  0 
M  END 
>  <HBA> 
2 
 
>  <HBD> 
2 
 
>  <TPSA> 
40.46 
 
>  <cid> 
8065 
 
>  <dipole> 
0.37 
 
>  <excitation_energy_1> 
6.034 
 
>  <excitation_energy_2> 
6.322 
 
>  <excitation_energy_3> 
6.557 
 
>  <excitation_energy_4> 
6.839 
 
>  <homo_energy> 
-6.988 
 
>  <homo_lumo_gap> 
6.904 
 
>  <logP> 
-0.473 
 
>  <lumo_energy> 
-0.084 
 
>  <melting_point> 
21.79 
 
>  <molecular_refractivity> 
23.19 
 
>  <oscillator_strength_1> 
0.1016 
 
>  <oscillator_strength_2> 
0.0018 
 
>  <oscillator_strength_3> 
0.0276 
 
>  <oscillator_strength_4> 
0.1753 
 
>  <open_babel_can_smiles> 
OC/C=C/CO 
 
>  <mulliken_charges> 
14 
1   -0.129573 
2   -0.129649 
3   -0.06947 
4   -0.069379 
5   -0.609698 
6   -0.60976 
7   0.135936 
8   0.13593 
9   0.12953 
10   0.157985 
11   0.129493 
12   0.15789 
13   0.385384 
14   0.385382 
 
>  <lowdin_charges> 
14 
1   -0.184468 
2   -0.184474 
3   -0.129323 
4   -0.130414 
5   -0.464912 
6   -0.467314 
7   0.153769 
8   0.153815 
9   0.130274 
10   0.154868 
11   0.130358 
12   0.156514 
13   0.339846 
14   0.341462 
 
$$$$ 
 
