PCCDB-ID:  22335 
public computational chemistry database (PCCDB) project, http://pccdb.org 
 
 18 19  0  0  0  0  0  0  0  0999 V2000 
   -1.2595    0.2590    0.3081 C   0  0  0  0  0  0  0  0  0  0  0  0 
    0.0980    0.1709    0.7596 C   0  0  0  0  0  0  0  0  0  0  0  0 
   -1.4161   -0.7395   -0.6025 C   0  0  0  0  0  0  0  0  0  0  0  0 
    2.1329   -3.8889   -1.0596 C   0  0  0  0  0  0  0  0  0  0  0  0 
    3.1953   -3.0958   -1.8132 C   0  0  0  0  0  0  0  0  0  0  0  0 
    0.6649   -0.8749    0.0878 C   0  0  0  0  0  0  0  0  0  0  0  0 
    2.0267   -1.4620    0.1346 C   0  0  0  0  0  0  0  0  0  0  0  0 
   -0.2553   -1.4392   -0.7508 O   0  0  0  0  0  0  0  0  0  0  0  0 
    2.0791   -3.2413    0.6526 S   0  0  0  0  0  0  0  0  0  0  0  0 
    2.9229   -1.3020   -1.5034 S   0  0  0  0  0  0  0  0  0  0  0  0 
   -2.0111    0.9702    0.6209 H   0  0  0  0  0  0  0  0  0  0  0  0 
    0.5881    0.8005    1.4896 H   0  0  0  0  0  0  0  0  0  0  0  0 
   -2.2434   -1.0739   -1.2096 H   0  0  0  0  0  0  0  0  0  0  0  0 
    2.3935   -4.9506   -0.9991 H   0  0  0  0  0  0  0  0  0  0  0  0 
    1.1503   -3.7856   -1.5276 H   0  0  0  0  0  0  0  0  0  0  0  0 
    3.1156   -3.2547   -2.8941 H   0  0  0  0  0  0  0  0  0  0  0  0 
    4.1980   -3.3792   -1.4826 H   0  0  0  0  0  0  0  0  0  0  0  0 
    2.6037   -0.9153    0.8835 H   0  0  0  0  0  0  0  0  0  0  0  0 
  1 11  1  0  0  0  0 
  1  2  1  0  0  0  0 
  2 12  1  0  0  0  0 
  3  1  2  0  0  0  0 
  4 14  1  0  0  0  0 
  4  9  1  0  0  0  0 
  5 10  1  0  0  0  0 
  5 17  1  0  0  0  0 
  5  4  1  0  0  0  0 
  6  7  1  0  0  0  0 
  6  2  2  0  0  0  0 
  7  9  1  0  0  0  0 
  7 18  1  0  0  0  0 
  8  3  1  0  0  0  0 
  8  6  1  0  0  0  0 
 10  7  1  0  0  0  0 
 13  3  1  0  0  0  0 
 15  4  1  0  0  0  0 
 16  5  1  0  0  0  0 
M  END 
>  <HBA> 
3 
 
>  <HBD> 
0 
 
>  <TPSA> 
63.74 
 
>  <cid> 
22335 
 
>  <dipole> 
0.97 
 
>  <excitation_energy_1> 
4.531 
 
>  <excitation_energy_2> 
4.723 
 
>  <excitation_energy_3> 
4.866 
 
>  <excitation_energy_4> 
5.068 
 
>  <homo_energy> 
-5.837 
 
>  <homo_lumo_gap> 
5.638 
 
>  <logP> 
2.758 
 
>  <lumo_energy> 
-0.199 
 
>  <melting_point> 
45.57 
 
>  <molecular_refractivity> 
46.36 
 
>  <oscillator_strength_1> 
0.0091 
 
>  <oscillator_strength_2> 
0.0135 
 
>  <oscillator_strength_3> 
0.0482 
 
>  <oscillator_strength_4> 
0.0224 
 
>  <open_babel_can_smiles> 
C1CSC(S1)c1ccco1 
 
>  <mulliken_charges> 
18 
1   -0.179272 
2   -0.200381 
3   0.089607 
4   -0.416356 
5   -0.409703 
6   0.414367 
7   -0.534769 
8   -0.42806 
9   0.131139 
10   0.119053 
11   0.143473 
12   0.142321 
13   0.155949 
14   0.183138 
15   0.202689 
16   0.184224 
17   0.189571 
18   0.213008 
 
>  <lowdin_charges> 
18 
1   -0.204794 
2   -0.210221 
3   -0.073464 
4   -0.374456 
5   -0.373117 
6   0.050868 
7   -0.323462 
8   -0.092165 
9   0.120188 
10   0.097544 
11   0.171509 
12   0.170663 
13   0.172804 
14   0.172722 
15   0.170429 
16   0.17047 
17   0.164626 
18   0.189857 
 
$$$$ 
 
