PCCDB-ID:  42560 
public computational chemistry database (PCCDB) project, http://pccdb.org 
 
 23 23  0  0  1  0  0  0  0  0999 V2000 
   -0.9373    0.4687    0.2036 C   0  0  0  0  0  0  0  0  0  0  0  0 
   -0.1980    1.6415    0.2972 C   0  0  0  0  0  0  0  0  0  0  0  0 
    1.0686   -0.7251   -0.4348 C   0  0  0  0  0  0  0  0  0  0  0  0 
    1.9261    2.9350    0.1371 C   0  0  0  0  0  0  0  0  0  0  0  0 
   -0.3045   -0.7280   -0.1628 C   0  0  0  0  0  0  0  0  0  0  0  0 
    1.1775    1.6600    0.0306 C   0  0  0  0  0  0  0  0  0  0  0  0 
    1.8114    0.4557   -0.3379 C   0  0  0  0  0  0  0  0  0  0  0  0 
   -1.0884   -2.0323   -0.2385 C   0  0  1  0  0  0  0  0  0  0  0  0 
   -0.7962   -2.7912   -1.5566 C   0  0  0  0  0  0  0  0  0  0  0  0 
   -0.8690   -2.8393    0.9558 N   0  0  0  0  0  0  0  0  0  0  0  0 
    1.4041    3.9929    0.4421 O   0  0  0  0  0  0  0  0  0  0  0  0 
    3.1473    0.4910   -0.5978 O   0  0  0  0  0  0  0  0  0  0  0  0 
   -0.4888   -3.9566   -1.5966 O   0  0  0  0  0  0  0  0  0  0  0  0 
   -0.9476   -2.0747   -2.6979 O   0  0  0  0  0  0  0  0  0  0  0  0 
   -2.0001    0.4700    0.4277 H   0  0  0  0  0  0  0  0  0  0  0  0 
   -0.6633    2.5801    0.5821 H   0  0  0  0  0  0  0  0  0  0  0  0 
    1.5674   -1.6470   -0.7328 H   0  0  0  0  0  0  0  0  0  0  0  0 
    3.0084    2.8774   -0.0802 H   0  0  0  0  0  0  0  0  0  0  0  0 
   -2.1583   -1.7795   -0.2728 H   0  0  0  0  0  0  0  0  0  0  0  0 
    0.1294   -3.0206    1.0557 H   0  0  0  0  0  0  0  0  0  0  0  0 
   -1.2913   -3.7554    0.8035 H   0  0  0  0  0  0  0  0  0  0  0  0 
    3.4520   -0.3947   -0.8511 H   0  0  0  0  0  0  0  0  0  0  0  0 
   -1.1174   -1.1413   -2.4791 H   0  0  0  0  0  0  0  0  0  0  0  0 
  1  2  1  0  0  0  0 
  1 15  1  0  0  0  0 
  2 16  1  0  0  0  0 
  3  7  2  0  0  0  0 
  3  5  1  0  0  0  0 
  4 11  2  0  0  0  0 
  5  1  2  0  0  0  0 
  6  4  1  0  0  0  0 
  6  2  2  0  0  0  0 
  7  6  1  0  0  0  0 
  8 19  1  6  0  0  0 
  8  5  1  0  0  0  0 
  8 10  1  0  0  0  0 
  9  8  1  0  0  0  0 
 10 20  1  0  0  0  0 
 12  7  1  0  0  0  0 
 13  9  2  0  0  0  0 
 14 23  1  0  0  0  0 
 14  9  1  0  0  0  0 
 17  3  1  0  0  0  0 
 18  4  1  0  0  0  0 
 21 10  1  0  0  0  0 
 22 12  1  0  0  0  0 
M  END 
>  <HBA> 
5 
 
>  <HBD> 
3 
 
>  <TPSA> 
100.62 
 
>  <cid> 
42560 
 
>  <dipole> 
1.25 
 
>  <excitation_energy_1> 
3.507 
 
>  <excitation_energy_2> 
4.168 
 
>  <excitation_energy_3> 
4.363 
 
>  <excitation_energy_4> 
4.99 
 
>  <homo_energy> 
-6.89 
 
>  <homo_lumo_gap> 
4.849 
 
>  <logP> 
0.989 
 
>  <lumo_energy> 
-2.041 
 
>  <melting_point> 
213.64 
 
>  <molecular_refractivity> 
48.1 
 
>  <oscillator_strength_1> 
0.0001 
 
>  <oscillator_strength_2> 
0.0816 
 
>  <oscillator_strength_3> 
0.0271 
 
>  <oscillator_strength_4> 
0.2306 
 
>  <open_babel_can_smiles> 
O=Cc1ccc(cc1O)[C@@H](C(=O)O)N 
 
>  <mulliken_charges> 
23 
1   -0.187552 
2   -0.171297 
3   -0.247141 
4   0.203762 
5   0.131767 
6   0.056107 
7   0.310064 
8   -0.169223 
9   0.578932 
10   -0.681256 
11   -0.408752 
12   -0.635178 
13   -0.448687 
14   -0.558653 
15   0.145613 
16   0.174318 
17   0.143641 
18   0.135133 
19   0.16893 
20   0.305515 
21   0.318297 
22   0.420254 
23   0.415407 
 
>  <lowdin_charges> 
23 
1   -0.178733 
2   -0.109889 
3   -0.224392 
4   0.051582 
5   0.002827 
6   -0.081825 
7   0.120026 
8   -0.105685 
9   0.163569 
10   -0.521548 
11   -0.22944 
12   -0.363348 
13   -0.238232 
14   -0.346735 
15   0.164724 
16   0.182346 
17   0.163284 
18   0.134721 
19   0.163372 
20   0.258534 
21   0.267301 
22   0.365858 
23   0.361684 
 
$$$$ 
 
