PCCDB-ID:  20590 
public computational chemistry database (PCCDB) project, http://pccdb.org 
 
 27 27  0  0  1  0  0  0  0  0999 V2000 
    1.1092   -0.0621    1.5218 C   0  0  0  0  0  0  0  0  0  0  0  0 
    4.9037    1.1382   -3.0644 C   0  0  0  0  0  0  0  0  0  0  0  0 
    3.4041    2.0664    1.2961 C   0  0  0  0  0  0  0  0  0  0  0  0 
    2.1242    1.9684   -0.8668 C   0  0  0  0  0  0  0  0  0  0  0  0 
    2.7133   -1.1897   -0.0829 C   0  0  0  0  0  0  0  0  0  0  0  0 
    3.8460   -0.8783   -1.0297 C   0  0  0  0  0  0  0  0  0  0  0  0 
    2.2527   -0.1057    0.5507 C   0  0  0  0  0  0  0  0  0  0  0  0 
    4.9436    1.4713   -1.5830 C   0  0  0  0  0  0  0  0  0  0  0  0 
    4.2766    0.5365   -0.5746 C   0  0  1  0  0  0  0  0  0  0  0  0 
    3.0011    1.1615    0.1198 C   0  0  0  0  0  0  0  0  0  0  0  0 
    5.4977    2.4855   -1.1911 O   0  0  0  0  0  0  0  0  0  0  0  0 
    0.6697   -1.0552    1.6602 H   0  0  0  0  0  0  0  0  0  0  0  0 
    0.3124    0.6124    1.1801 H   0  0  0  0  0  0  0  0  0  0  0  0 
    1.4297    0.3060    2.5052 H   0  0  0  0  0  0  0  0  0  0  0  0 
    3.8689    1.0483   -3.4175 H   0  0  0  0  0  0  0  0  0  0  0  0 
    5.3901    0.1745   -3.2601 H   0  0  0  0  0  0  0  0  0  0  0  0 
    5.4137    1.9257   -3.6227 H   0  0  0  0  0  0  0  0  0  0  0  0 
    2.5256    2.5231    1.7676 H   0  0  0  0  0  0  0  0  0  0  0  0 
    4.0619    2.8670    0.9445 H   0  0  0  0  0  0  0  0  0  0  0  0 
    3.9439    1.4981    2.0630 H   0  0  0  0  0  0  0  0  0  0  0  0 
    1.1958    2.2899   -0.3813 H   0  0  0  0  0  0  0  0  0  0  0  0 
    1.8465    1.3718   -1.7436 H   0  0  0  0  0  0  0  0  0  0  0  0 
    2.6446    2.8704   -1.2080 H   0  0  0  0  0  0  0  0  0  0  0  0 
    2.3014   -2.1901    0.0278 H   0  0  0  0  0  0  0  0  0  0  0  0 
    3.4971   -0.9026   -2.0724 H   0  0  0  0  0  0  0  0  0  0  0  0 
    4.6726   -1.5981   -0.9675 H   0  0  0  0  0  0  0  0  0  0  0  0 
    5.0152    0.4141    0.2276 H   0  0  0  0  0  0  0  0  0  0  0  0 
  1 12  1  0  0  0  0 
  1 14  1  0  0  0  0 
  2  8  1  0  0  0  0 
  3 18  1  0  0  0  0 
  3 20  1  0  0  0  0 
  4 21  1  0  0  0  0 
  4 10  1  0  0  0  0 
  5 24  1  0  0  0  0 
  5  7  2  0  0  0  0 
  6 26  1  0  0  0  0 
  6  9  1  0  0  0  0 
  6  5  1  0  0  0  0 
  7  1  1  0  0  0  0 
  8 11  2  0  0  0  0 
  8  9  1  0  0  0  0 
  9 10  1  0  0  0  0 
  9 27  1  1  0  0  0 
 10  7  1  0  0  0  0 
 10  3  1  0  0  0  0 
 13  1  1  0  0  0  0 
 15  2  1  0  0  0  0 
 16  2  1  0  0  0  0 
 17  2  1  0  0  0  0 
 19  3  1  0  0  0  0 
 22  4  1  0  0  0  0 
 23  4  1  0  0  0  0 
 25  6  1  0  0  0  0 
M  END 
>  <HBA> 
1 
 
>  <HBD> 
0 
 
>  <TPSA> 
17.07 
 
>  <cid> 
20590 
 
>  <dipole> 
2.57 
 
>  <excitation_energy_1> 
4.229 
 
>  <excitation_energy_2> 
5.045 
 
>  <excitation_energy_3> 
5.754 
 
>  <excitation_energy_4> 
6.058 
 
>  <homo_energy> 
-6.313 
 
>  <homo_lumo_gap> 
5.954 
 
>  <logP> 
2.568 
 
>  <lumo_energy> 
-0.359 
 
>  <melting_point> 
46.65 
 
>  <molecular_refractivity> 
47.54 
 
>  <oscillator_strength_1> 
0.0001 
 
>  <oscillator_strength_2> 
0.0009 
 
>  <oscillator_strength_3> 
0.0031 
 
>  <oscillator_strength_4> 
0.0325 
 
>  <open_babel_can_smiles> 
CC(=O)[C@@H]1CC=C(C1(C)C)C 
 
>  <mulliken_charges> 
27 
1   -0.52915 
2   -0.539984 
3   -0.467189 
4   -0.469416 
5   -0.181037 
6   -0.315931 
7   0.198088 
8   0.454132 
9   -0.194237 
10   0.037504 
11   -0.451867 
12   0.15518 
13   0.155725 
14   0.160969 
15   0.171437 
16   0.170451 
17   0.177167 
18   0.136412 
19   0.17739 
20   0.140322 
21   0.145826 
22   0.141479 
23   0.160835 
24   0.117944 
25   0.142716 
26   0.143828 
27   0.161404 
 
>  <lowdin_charges> 
27 
1   -0.441861 
2   -0.476276 
3   -0.451419 
4   -0.450622 
5   -0.192845 
6   -0.280879 
7   -0.010395 
8   0.16743 
9   -0.157017 
10   0.02092 
11   -0.245885 
12   0.158614 
13   0.157497 
14   0.159218 
15   0.168119 
16   0.170038 
17   0.172761 
18   0.14667 
19   0.167929 
20   0.148982 
21   0.151974 
22   0.147652 
23   0.157457 
24   0.149899 
25   0.144844 
26   0.148975 
27   0.168219 
 
$$$$ 
 
