PCCDB-ID:  15808 
public computational chemistry database (PCCDB) project, http://pccdb.org 
 
 37 37  0  0  1  0  0  0  0  0999 V2000 
    3.3737   -1.0284    2.4680 C   0  0  0  0  0  0  0  0  0  0  0  0 
    7.2211   -4.2675   -3.0723 C   0  0  0  0  0  0  0  0  0  0  0  0 
    2.3542   -0.7848   -1.3158 C   0  0  0  0  0  0  0  0  0  0  0  0 
    7.5905   -4.3439    0.8383 C   0  0  0  0  0  0  0  0  0  0  0  0 
    2.7557   -0.4882    1.1750 C   0  0  0  0  0  0  0  0  0  0  0  0 
    7.1000   -4.7489   -1.6233 C   0  0  0  0  0  0  0  0  0  0  0  0 
    5.3243   -0.0255   -0.6290 C   0  0  0  0  0  0  0  0  0  0  0  0 
    6.6934   -0.0078   -0.8802 C   0  0  0  0  0  0  0  0  0  0  0  0 
    5.4254   -2.4010   -0.3573 C   0  0  0  0  0  0  0  0  0  0  0  0 
    3.1597   -1.2713   -0.0956 C   0  0  2  0  0  0  0  0  0  0  0  0 
    7.5949   -3.7271   -0.5742 C   0  0  1  0  0  0  0  0  0  0  0  0 
    4.6594   -1.2294   -0.3619 C   0  0  0  0  0  0  0  0  0  0  0  0 
    6.8034   -2.4243   -0.6064 C   0  0  0  0  0  0  0  0  0  0  0  0 
    7.4315   -1.1958   -0.8710 C   0  0  0  0  0  0  0  0  0  0  0  0 
    8.7842   -1.2002   -1.1160 O   0  0  0  0  0  0  0  0  0  0  0  0 
    3.0532   -0.4386    3.3343 H   0  0  0  0  0  0  0  0  0  0  0  0 
    4.4678   -1.0022    2.4279 H   0  0  0  0  0  0  0  0  0  0  0  0 
    3.0727   -2.0688    2.6447 H   0  0  0  0  0  0  0  0  0  0  0  0 
    6.8783   -5.0373   -3.7733 H   0  0  0  0  0  0  0  0  0  0  0  0 
    8.2616   -4.0263   -3.3219 H   0  0  0  0  0  0  0  0  0  0  0  0 
    6.6219   -3.3666   -3.2436 H   0  0  0  0  0  0  0  0  0  0  0  0 
    1.2770   -0.8913   -1.1394 H   0  0  0  0  0  0  0  0  0  0  0  0 
    2.6119   -1.3577   -2.2131 H   0  0  0  0  0  0  0  0  0  0  0  0 
    2.5528    0.2726   -1.5286 H   0  0  0  0  0  0  0  0  0  0  0  0 
    8.2174   -5.2433    0.8695 H   0  0  0  0  0  0  0  0  0  0  0  0 
    6.5785   -4.6322    1.1475 H   0  0  0  0  0  0  0  0  0  0  0  0 
    7.9755   -3.6351    1.5794 H   0  0  0  0  0  0  0  0  0  0  0  0 
    3.0284    0.5692    1.0494 H   0  0  0  0  0  0  0  0  0  0  0  0 
    1.6601   -0.5102    1.2584 H   0  0  0  0  0  0  0  0  0  0  0  0 
    7.6822   -5.6724   -1.4970 H   0  0  0  0  0  0  0  0  0  0  0  0 
    6.0560   -5.0187   -1.4099 H   0  0  0  0  0  0  0  0  0  0  0  0 
    4.7749    0.9126   -0.6437 H   0  0  0  0  0  0  0  0  0  0  0  0 
    7.1968    0.9360   -1.0866 H   0  0  0  0  0  0  0  0  0  0  0  0 
    4.9238   -3.3444   -0.1504 H   0  0  0  0  0  0  0  0  0  0  0  0 
    2.8914   -2.3241    0.0755 H   0  0  0  0  0  0  0  0  0  0  0  0 
    8.6334   -3.4849   -0.8230 H   0  0  0  0  0  0  0  0  0  0  0  0 
    9.0689   -0.2894   -1.2864 H   0  0  0  0  0  0  0  0  0  0  0  0 
  1 18  1  0  0  0  0 
  1 16  1  0  0  0  0 
  2  6  1  0  0  0  0 
  3 22  1  0  0  0  0 
  3 10  1  0  0  0  0 
  4 25  1  0  0  0  0 
  4 26  1  0  0  0  0 
  4 27  1  0  0  0  0 
  5 29  1  0  0  0  0 
  5  1  1  0  0  0  0 
  6 30  1  0  0  0  0 
  6 31  1  0  0  0  0 
  6 11  1  0  0  0  0 
  7 12  2  0  0  0  0 
  8 14  2  0  0  0  0 
  8  7  1  0  0  0  0 
  9 34  1  0  0  0  0 
 10 35  1  1  0  0  0 
 10  5  1  0  0  0  0 
 11 36  1  6  0  0  0 
 11  4  1  0  0  0  0 
 12  9  1  0  0  0  0 
 12 10  1  0  0  0  0 
 13 11  1  0  0  0  0 
 13  9  2  0  0  0  0 
 14 13  1  0  0  0  0 
 15 14  1  0  0  0  0 
 17  1  1  0  0  0  0 
 19  2  1  0  0  0  0 
 20  2  1  0  0  0  0 
 21  2  1  0  0  0  0 
 23  3  1  0  0  0  0 
 24  3  1  0  0  0  0 
 28  5  1  0  0  0  0 
 32  7  1  0  0  0  0 
 33  8  1  0  0  0  0 
 37 15  1  0  0  0  0 
M  END 
>  <HBA> 
1 
 
>  <HBD> 
1 
 
>  <TPSA> 
20.23 
 
>  <cid> 
15808 
 
>  <dipole> 
1.23 
 
>  <excitation_energy_1> 
4.865 
 
>  <excitation_energy_2> 
4.954 
 
>  <excitation_energy_3> 
5.411 
 
>  <excitation_energy_4> 
5.602 
 
>  <homo_energy> 
-5.663 
 
>  <homo_lumo_gap> 
5.731 
 
>  <logP> 
4.419 
 
>  <lumo_energy> 
0.068 
 
>  <melting_point> 
48.98 
 
>  <molecular_refractivity> 
67.24 
 
>  <oscillator_strength_1> 
0.0499 
 
>  <oscillator_strength_2> 
0.0003 
 
>  <oscillator_strength_3> 
0.0016 
 
>  <oscillator_strength_4> 
0.0297 
 
>  <open_babel_can_smiles> 
CC[C@H](c1ccc(c(c1)[C@H](CC)C)O)C 
 
>  <mulliken_charges> 
37 
1   -0.446119 
2   -0.444904 
3   -0.443182 
4   -0.442571 
5   -0.24403 
6   -0.245057 
7   -0.199738 
8   -0.186853 
9   -0.282186 
10   -0.160013 
11   -0.156062 
12   0.195536 
13   0.1546 
14   0.276351 
15   -0.649507 
16   0.139393 
17   0.156361 
18   0.137763 
19   0.137214 
20   0.143496 
21   0.15252 
22   0.138909 
23   0.147912 
24   0.140572 
25   0.138466 
26   0.13939 
27   0.148541 
28   0.128739 
29   0.128236 
30   0.128094 
31   0.127094 
32   0.124125 
33   0.112639 
34   0.121056 
35   0.122752 
36   0.154228 
37   0.406236 
 
>  <lowdin_charges> 
37 
1   -0.445134 
2   -0.447623 
3   -0.438988 
4   -0.440417 
5   -0.26753 
6   -0.26842 
7   -0.161322 
8   -0.211718 
9   -0.167752 
10   -0.11937 
11   -0.123579 
12   -0.017489 
13   -0.02904 
14   0.090061 
15   -0.387293 
16   0.149269 
17   0.152303 
18   0.143697 
19   0.148492 
20   0.14674 
21   0.152574 
22   0.145085 
23   0.152499 
24   0.144713 
25   0.146824 
26   0.144362 
27   0.153487 
28   0.136759 
29   0.137702 
30   0.140055 
31   0.135554 
32   0.154681 
33   0.150412 
34   0.152417 
35   0.137798 
36   0.155045 
37   0.355146 
 
$$$$ 
 
