PCCDB-ID:  36660 
public computational chemistry database (PCCDB) project, http://pccdb.org 
 
 31 32  0  0  1  0  0  0  0  0999 V2000 
    0.5872    0.8072   -0.3845 C   0  0  0  0  0  0  0  0  0  0  0  0 
    8.8839    1.3140    1.3715 C   0  0  0  0  0  0  0  0  0  0  0  0 
    6.3650    2.3481    0.5923 C   0  0  0  0  0  0  0  0  0  0  0  0 
    5.1095    2.8238    0.2180 C   0  0  0  0  0  0  0  0  0  0  0  0 
    5.4917    0.0840    0.8654 C   0  0  0  0  0  0  0  0  0  0  0  0 
    2.6439   -1.5536    0.5290 C   0  0  0  0  0  0  0  0  0  0  0  0 
    2.0463    0.8902   -0.0667 C   0  0  0  0  0  0  0  0  0  0  0  0 
    6.5551    0.9858    0.9123 C   0  0  0  0  0  0  0  0  0  0  0  0 
    2.9352   -0.0927    0.3326 C   0  0  0  0  0  0  0  0  0  0  0  0 
    4.2245    0.5467    0.4883 C   0  0  0  0  0  0  0  0  0  0  0  0 
    4.0516    1.9194    0.1672 C   0  0  0  0  0  0  0  0  0  0  0  0 
    2.3291   -1.9496    1.9662 C   0  0  2  0  0  0  0  0  0  0  0  0 
    2.7186    2.0935   -0.1670 N   0  0  0  0  0  0  0  0  0  0  0  0 
    2.0852   -3.1422    2.3637 N   0  0  0  0  0  0  0  0  0  0  0  0 
    2.2858   -0.9809    2.9122 O   0  0  0  0  0  0  0  0  0  0  0  0 
    2.1538   -4.0349    1.2508 O   0  0  0  0  0  0  0  0  0  0  0  0 
    7.7630    0.4539    1.2858 O   0  0  0  0  0  0  0  0  0  0  0  0 
    0.2343   -0.2241   -0.3127 H   0  0  0  0  0  0  0  0  0  0  0  0 
    0.3768    1.1640   -1.4012 H   0  0  0  0  0  0  0  0  0  0  0  0 
   -0.0148    1.4112    0.3071 H   0  0  0  0  0  0  0  0  0  0  0  0 
    9.7192    0.6863    1.6886 H   0  0  0  0  0  0  0  0  0  0  0  0 
    8.7316    2.1110    2.1125 H   0  0  0  0  0  0  0  0  0  0  0  0 
    9.1249    1.7693    0.4008 H   0  0  0  0  0  0  0  0  0  0  0  0 
    7.1953    3.0427    0.6354 H   0  0  0  0  0  0  0  0  0  0  0  0 
    4.9724    3.8737   -0.0272 H   0  0  0  0  0  0  0  0  0  0  0  0 
    5.6728   -0.9544    1.1253 H   0  0  0  0  0  0  0  0  0  0  0  0 
    3.4918   -2.1641    0.1954 H   0  0  0  0  0  0  0  0  0  0  0  0 
    1.8039   -1.8826   -0.0942 H   0  0  0  0  0  0  0  0  0  0  0  0 
    2.2927    2.9679   -0.4335 H   0  0  0  0  0  0  0  0  0  0  0  0 
    2.5165   -0.1444    2.4676 H   0  0  0  0  0  0  0  0  0  0  0  0 
    1.9699   -4.8823    1.6819 H   0  0  0  0  0  0  0  0  0  0  0  0 
  1 18  1  0  0  0  0 
  1  7  1  0  0  0  0 
  1 20  1  0  0  0  0 
  2 21  1  0  0  0  0 
  2 22  1  0  0  0  0 
  3 24  1  0  0  0  0 
  3  8  2  0  0  0  0 
  4  3  1  0  0  0  0 
  5  8  1  0  0  0  0 
  5 26  1  0  0  0  0 
  6 12  1  0  0  0  0 
  7  9  2  0  0  0  0 
  8 17  1  0  0  0  0 
  9 10  1  0  0  0  0 
  9  6  1  0  0  0  0 
 10  5  2  0  0  0  0 
 11  4  2  0  0  0  0 
 11 10  1  0  0  0  0 
 12 14  1  6  0  0  0 
 12 15  1  0  0  0  0 
 13  7  1  0  0  0  0 
 13 11  1  0  0  0  0 
 16 31  1  0  0  0  0 
 16 14  1  0  0  0  0 
 17  2  1  0  0  0  0 
 19  1  1  0  0  0  0 
 23  2  1  0  0  0  0 
 25  4  1  0  0  0  0 
 27  6  1  0  0  0  0 
 28  6  1  0  0  0  0 
 29 13  1  0  0  0  0 
 30 15  1  0  0  0  0 
M  RAD  2  12   2  14   2 
M  END 
>  <HBA> 
4 
 
>  <HBD> 
3 
 
>  <TPSA> 
74.35 
 
>  <cid> 
36660 
 
>  <dipole> 
5.38 
 
>  <excitation_energy_1> 
4.348 
 
>  <excitation_energy_2> 
4.602 
 
>  <excitation_energy_3> 
4.722 
 
>  <excitation_energy_4> 
4.79 
 
>  <homo_energy> 
-5.393 
 
>  <homo_lumo_gap> 
4.947 
 
>  <logP> 
1.924 
 
>  <lumo_energy> 
-0.446 
 
>  <melting_point> 
212.52 
 
>  <molecular_refractivity> 
63.26 
 
>  <oscillator_strength_1> 
0.078 
 
>  <oscillator_strength_2> 
0.0002 
 
>  <oscillator_strength_3> 
0.1248 
 
>  <oscillator_strength_4> 
0.0021 
 
>  <open_babel_can_smiles> 
Cc1c(C[C]([N]O)O)c2c([nH]1)ccc(c2)OC 
 
>  <mulliken_charges> 
31 
1   -0.537114 
2   -0.211136 
3   -0.215611 
4   -0.176952 
5   -0.270608 
6   -0.412567 
7   0.327363 
8   0.379803 
9   -0.098358 
10   0.105959 
11   0.324068 
12   0.508637 
13   -0.742264 
14   -0.259381 
15   -0.591927 
16   -0.533396 
17   -0.513503 
18   0.183022 
19   0.16756 
20   0.171246 
21   0.168223 
22   0.147764 
23   0.146955 
24   0.129067 
25   0.125468 
26   0.142715 
27   0.193555 
28   0.183604 
29   0.323703 
30   0.419533 
31   0.414571 
 
>  <lowdin_charges> 
31 
1   -0.447042 
2   -0.27926 
3   -0.214535 
4   -0.176591 
5   -0.192625 
6   -0.297583 
7   0.031409 
8   0.094632 
9   -0.108008 
10   -0.029884 
11   0.018953 
12   0.094536 
13   -0.207427 
14   -0.117548 
15   -0.362327 
16   -0.404049 
17   -0.205807 
18   0.174173 
19   0.163448 
20   0.167126 
21   0.162802 
22   0.142853 
23   0.141785 
24   0.163519 
25   0.155961 
26   0.168676 
27   0.181868 
28   0.176573 
29   0.290726 
30   0.360002 
31   0.353644 
 
$$$$ 
 
