PCCDB-ID:  28618 
public computational chemistry database (PCCDB) project, http://pccdb.org 
 
 21 21  0  0  1  0  0  0  0  0999 V2000 
   -2.0225   -0.0445    0.0283 C   0  0  0  0  0  0  0  0  0  0  0  0 
   -1.3988    1.1570   -0.3140 C   0  0  0  0  0  0  0  0  0  0  0  0 
   -1.2433   -1.1647    0.3210 C   0  0  0  0  0  0  0  0  0  0  0  0 
   -0.0066    1.2352   -0.3599 C   0  0  0  0  0  0  0  0  0  0  0  0 
    0.1496   -1.0803    0.2746 C   0  0  0  0  0  0  0  0  0  0  0  0 
    2.2983    0.2260   -0.0747 C   0  0  0  0  0  0  0  0  0  0  0  0 
    0.7906    0.1191   -0.0661 C   0  0  0  0  0  0  0  0  0  0  0  0 
    2.8734    0.7822    1.2448 C   0  0  1  0  0  0  0  0  0  0  0  0 
    2.6525   -0.0236    2.4381 N   0  0  0  0  0  0  0  0  0  0  0  0 
    4.2675    0.9106    1.0376 O   0  0  0  0  0  0  0  0  0  0  0  0 
   -3.1068   -0.1085    0.0614 H   0  0  0  0  0  0  0  0  0  0  0  0 
   -1.9967    2.0336   -0.5497 H   0  0  0  0  0  0  0  0  0  0  0  0 
   -1.7190   -2.1068    0.5810 H   0  0  0  0  0  0  0  0  0  0  0  0 
    0.4710    2.1731   -0.6357 H   0  0  0  0  0  0  0  0  0  0  0  0 
    0.7488   -1.9622    0.4911 H   0  0  0  0  0  0  0  0  0  0  0  0 
    2.6310    0.8839   -0.8862 H   0  0  0  0  0  0  0  0  0  0  0  0 
    2.7586   -0.7548   -0.2501 H   0  0  0  0  0  0  0  0  0  0  0  0 
    2.4100    1.7628    1.4455 H   0  0  0  0  0  0  0  0  0  0  0  0 
    2.8861   -0.9977    2.2430 H   0  0  0  0  0  0  0  0  0  0  0  0 
    1.6716    0.0022    2.7114 H   0  0  0  0  0  0  0  0  0  0  0  0 
    4.6434    1.0681    1.9200 H   0  0  0  0  0  0  0  0  0  0  0  0 
  1 11  1  0  0  0  0 
  1  3  2  0  0  0  0 
  2  1  1  0  0  0  0 
  3 13  1  0  0  0  0 
  4  2  2  0  0  0  0 
  4  7  1  0  0  0  0 
  5  3  1  0  0  0  0 
  5 15  1  0  0  0  0 
  6  7  1  0  0  0  0 
  6  8  1  0  0  0  0 
  7  5  2  0  0  0  0 
  8 18  1  1  0  0  0 
  8  9  1  0  0  0  0 
  9 20  1  0  0  0  0 
 10  8  1  0  0  0  0 
 10 21  1  0  0  0  0 
 12  2  1  0  0  0  0 
 14  4  1  0  0  0  0 
 16  6  1  0  0  0  0 
 17  6  1  0  0  0  0 
 19  9  1  0  0  0  0 
M  END 
>  <HBA> 
2 
 
>  <HBD> 
2 
 
>  <TPSA> 
46.25 
 
>  <cid> 
28618 
 
>  <dipole> 
1.66 
 
>  <excitation_energy_1> 
5.282 
 
>  <excitation_energy_2> 
5.713 
 
>  <excitation_energy_3> 
5.883 
 
>  <excitation_energy_4> 
5.977 
 
>  <homo_energy> 
-6.495 
 
>  <homo_lumo_gap> 
6.408 
 
>  <logP> 
1.206 
 
>  <lumo_energy> 
-0.087 
 
>  <melting_point> 
79.35 
 
>  <molecular_refractivity> 
40.08 
 
>  <oscillator_strength_1> 
0.0012 
 
>  <oscillator_strength_2> 
0.0354 
 
>  <oscillator_strength_3> 
0.0611 
 
>  <oscillator_strength_4> 
0.0037 
 
>  <open_babel_can_smiles> 
N[C@H](Cc1ccccc1)O 
 
>  <mulliken_charges> 
21 
1   -0.131573 
2   -0.127214 
3   -0.127369 
4   -0.182389 
5   -0.193449 
6   -0.361056 
7   0.166981 
8   0.244745 
9   -0.724513 
10   -0.620475 
11   0.129918 
12   0.130791 
13   0.129796 
14   0.127947 
15   0.119907 
16   0.159259 
17   0.143953 
18   0.119344 
19   0.295967 
20   0.306369 
21   0.393063 
 
>  <lowdin_charges> 
21 
1   -0.157781 
2   -0.155107 
3   -0.156348 
4   -0.167504 
5   -0.174608 
6   -0.294486 
7   -0.005175 
8   0.046692 
9   -0.553094 
10   -0.462962 
11   0.15586 
12   0.158836 
13   0.157759 
14   0.156475 
15   0.152784 
16   0.163205 
17   0.151891 
18   0.123718 
19   0.252851 
20   0.262871 
21   0.344124 
 
$$$$ 
 
