PCCDB-ID:  14306 
public computational chemistry database (PCCDB) project, http://pccdb.org 
 
 20 21  0  0  0  0  0  0  0  0999 V2000 
    0.8945   -0.0029    0.1808 C   0  0  0  0  0  0  0  0  0  0  0  0 
    6.6494    2.3940   -0.1361 C   0  0  0  0  0  0  0  0  0  0  0  0 
    7.3104    1.1399   -0.1588 C   0  0  0  0  0  0  0  0  0  0  0  0 
    5.2755    2.4660   -0.0669 C   0  0  0  0  0  0  0  0  0  0  0  0 
    6.5806   -0.0269   -0.1118 C   0  0  0  0  0  0  0  0  0  0  0  0 
    3.0801    1.2650    0.0549 C   0  0  0  0  0  0  0  0  0  0  0  0 
    4.3529   -1.1473    0.0120 C   0  0  0  0  0  0  0  0  0  0  0  0 
    2.3972    0.0675    0.1016 C   0  0  0  0  0  0  0  0  0  0  0  0 
    4.4969    1.2793   -0.0176 C   0  0  0  0  0  0  0  0  0  0  0  0 
    5.1654    0.0188   -0.0404 C   0  0  0  0  0  0  0  0  0  0  0  0 
    3.0404   -1.1420    0.0798 N   0  0  0  0  0  0  0  0  0  0  0  0 
    0.4417    0.9930    0.1989 H   0  0  0  0  0  0  0  0  0  0  0  0 
    0.5844   -0.5451    1.0817 H   0  0  0  0  0  0  0  0  0  0  0  0 
    0.4918   -0.5553   -0.6763 H   0  0  0  0  0  0  0  0  0  0  0  0 
    7.2376    3.3071   -0.1726 H   0  0  0  0  0  0  0  0  0  0  0  0 
    8.3949    1.1058   -0.2131 H   0  0  0  0  0  0  0  0  0  0  0  0 
    4.7723    3.4295   -0.0481 H   0  0  0  0  0  0  0  0  0  0  0  0 
    7.0776   -0.9942   -0.1278 H   0  0  0  0  0  0  0  0  0  0  0  0 
    2.5361    2.2062    0.0730 H   0  0  0  0  0  0  0  0  0  0  0  0 
    4.8365   -2.1258   -0.0040 H   0  0  0  0  0  0  0  0  0  0  0  0 
  1 12  1  0  0  0  0 
  1 13  1  0  0  0  0 
  2  4  1  0  0  0  0 
  3  2  2  0  0  0  0 
  3  5  1  0  0  0  0 
  4 17  1  0  0  0  0 
  4  9  2  0  0  0  0 
  5 10  2  0  0  0  0 
  6 19  1  0  0  0  0 
  6  8  2  0  0  0  0 
  7 11  2  0  0  0  0 
  8  1  1  0  0  0  0 
  9  6  1  0  0  0  0 
 10  9  1  0  0  0  0 
 10  7  1  0  0  0  0 
 11  8  1  0  0  0  0 
 14  1  1  0  0  0  0 
 15  2  1  0  0  0  0 
 16  3  1  0  0  0  0 
 18  5  1  0  0  0  0 
 20  7  1  0  0  0  0 
M  END 
>  <HBA> 
1 
 
>  <HBD> 
0 
 
>  <TPSA> 
12.89 
 
>  <cid> 
14306 
 
>  <dipole> 
2.01 
 
>  <excitation_energy_1> 
4.211 
 
>  <excitation_energy_2> 
4.34 
 
>  <excitation_energy_3> 
4.646 
 
>  <excitation_energy_4> 
5.146 
 
>  <homo_energy> 
-6.046 
 
>  <homo_lumo_gap> 
4.762 
 
>  <logP> 
2.543 
 
>  <lumo_energy> 
-1.284 
 
>  <melting_point> 
67.99 
 
>  <molecular_refractivity> 
46.71 
 
>  <oscillator_strength_1> 
0.053 
 
>  <oscillator_strength_2> 
0.0012 
 
>  <oscillator_strength_3> 
0.0223 
 
>  <oscillator_strength_4> 
0.0013 
 
>  <open_babel_can_smiles> 
Cc1ncc2c(c1)cccc2 
 
>  <mulliken_charges> 
20 
1   -0.502671 
2   -0.130662 
3   -0.135982 
4   -0.185391 
5   -0.189311 
6   -0.241214 
7   -0.008129 
8   0.295856 
9   0.161868 
10   0.105086 
11   -0.464175 
12   0.147165 
13   0.169648 
14   0.169583 
15   0.135873 
16   0.134924 
17   0.134001 
18   0.137672 
19   0.127319 
20   0.13854 
 
>  <lowdin_charges> 
20 
1   -0.443003 
2   -0.146399 
3   -0.157658 
4   -0.159451 
5   -0.145557 
6   -0.189517 
7   -0.08268 
8   0.050536 
9   0.014585 
10   -0.0268 
11   -0.157961 
12   0.152507 
13   0.167713 
14   0.167999 
15   0.161665 
16   0.158878 
17   0.160024 
18   0.161383 
19   0.15959 
20   0.154144 
 
$$$$ 
 
