PCCDB-ID:  66130 
public computational chemistry database (PCCDB) project, http://pccdb.org 
 
 15 15  0  0  0  0  0  0  0  0999 V2000 
    3.5725    0.3069    0.9298 C   0  0  0  0  0  0  0  0  0  0  0  0 
    2.5098   -0.0555   -0.1244 C   0  0  0  0  0  0  0  0  0  0  0  0 
    3.1843   -3.2365   -1.7065 C   0  0  0  0  0  0  0  0  0  0  0  0 
    3.8502   -2.4207   -2.5845 C   0  0  0  0  0  0  0  0  0  0  0  0 
    2.8879   -1.2382   -0.9643 C   0  0  0  0  0  0  0  0  0  0  0  0 
    2.5914   -2.4979   -0.7057 N   0  0  0  0  0  0  0  0  0  0  0  0 
    3.6541   -1.1421   -2.0987 N   0  0  0  0  0  0  0  0  0  0  0  0 
    3.2464    1.1623    1.5322 H   0  0  0  0  0  0  0  0  0  0  0  0 
    4.5281    0.5683    0.4606 H   0  0  0  0  0  0  0  0  0  0  0  0 
    3.7487   -0.5400    1.6004 H   0  0  0  0  0  0  0  0  0  0  0  0 
    2.3157    0.8134   -0.7682 H   0  0  0  0  0  0  0  0  0  0  0  0 
    1.5666   -0.2988    0.3744 H   0  0  0  0  0  0  0  0  0  0  0  0 
    3.0912   -4.3137   -1.7403 H   0  0  0  0  0  0  0  0  0  0  0  0 
    4.4168   -2.6137   -3.4830 H   0  0  0  0  0  0  0  0  0  0  0  0 
    4.0081   -0.2901   -2.5090 H   0  0  0  0  0  0  0  0  0  0  0  0 
  1  8  1  0  0  0  0 
  1 10  1  0  0  0  0 
  2 12  1  0  0  0  0 
  2  1  1  0  0  0  0 
  3  6  1  0  0  0  0 
  4  7  1  0  0  0  0 
  4  3  2  0  0  0  0 
  5  6  2  0  0  0  0 
  5  2  1  0  0  0  0 
  7  5  1  0  0  0  0 
  9  1  1  0  0  0  0 
 11  2  1  0  0  0  0 
 13  3  1  0  0  0  0 
 14  4  1  0  0  0  0 
 15  7  1  0  0  0  0 
M  END 
>  <HBA> 
1 
 
>  <HBD> 
1 
 
>  <TPSA> 
28.68 
 
>  <cid> 
66130 
 
>  <dipole> 
3.5 
 
>  <excitation_energy_1> 
5.116 
 
>  <excitation_energy_2> 
5.809 
 
>  <excitation_energy_3> 
6.06 
 
>  <excitation_energy_4> 
6.217 
 
>  <homo_energy> 
-5.823 
 
>  <homo_lumo_gap> 
6.787 
 
>  <logP> 
0.972 
 
>  <lumo_energy> 
0.963 
 
>  <melting_point> 
69.27 
 
>  <molecular_refractivity> 
28.36 
 
>  <oscillator_strength_1> 
0.0076 
 
>  <oscillator_strength_2> 
0.1053 
 
>  <oscillator_strength_3> 
0.0832 
 
>  <oscillator_strength_4> 
0.0218 
 
>  <open_babel_can_smiles> 
CCc1ncc[nH]1 
 
>  <mulliken_charges> 
15 
1   -0.436761 
2   -0.330867 
3   -0.031699 
4   0.017298 
5   0.48147 
6   -0.472294 
7   -0.594933 
8   0.146132 
9   0.138181 
10   0.168877 
11   0.135025 
12   0.174691 
13   0.130063 
14   0.147053 
15   0.327764 
 
>  <lowdin_charges> 
15 
1   -0.441868 
2   -0.277503 
3   -0.152369 
4   -0.174468 
5   0.049577 
6   -0.204967 
7   -0.188896 
8   0.151565 
9   0.144912 
10   0.161558 
11   0.146745 
12   0.170181 
13   0.157583 
14   0.167168 
15   0.290783 
 
$$$$ 
 
