PCCDB-ID:  70112 
public computational chemistry database (PCCDB) project, http://pccdb.org 
 
 19 20  0  0  0  0  0  0  0  0999 V2000 
   -1.4840   -0.0926    0.0607 C   0  0  0  0  0  0  0  0  0  0  0  0 
   -0.9376    1.1594   -0.2276 C   0  0  0  0  0  0  0  0  0  0  0  0 
   -0.6373   -1.1859    0.2538 C   0  0  0  0  0  0  0  0  0  0  0  0 
    0.4461    1.3147   -0.3212 C   0  0  0  0  0  0  0  0  0  0  0  0 
    0.7457   -1.0256    0.1594 C   0  0  0  0  0  0  0  0  0  0  0  0 
    3.7342   -0.0317    0.8380 C   0  0  0  0  0  0  0  0  0  0  0  0 
    3.5459    1.4326    0.5213 C   0  0  0  0  0  0  0  0  0  0  0  0 
    1.3076    0.2260   -0.1281 C   0  0  0  0  0  0  0  0  0  0  0  0 
    2.7936    0.3869   -0.2683 C   0  0  0  0  0  0  0  0  0  0  0  0 
   -2.5613   -0.2148    0.1375 H   0  0  0  0  0  0  0  0  0  0  0  0 
   -1.5890    2.0169   -0.3769 H   0  0  0  0  0  0  0  0  0  0  0  0 
   -1.0537   -2.1639    0.4816 H   0  0  0  0  0  0  0  0  0  0  0  0 
    0.8692    2.2915   -0.5429 H   0  0  0  0  0  0  0  0  0  0  0  0 
    1.4030   -1.8779    0.3137 H   0  0  0  0  0  0  0  0  0  0  0  0 
    3.2943   -0.4072    1.7580 H   0  0  0  0  0  0  0  0  0  0  0  0 
    4.6736   -0.5050    0.5657 H   0  0  0  0  0  0  0  0  0  0  0  0 
    4.3560    1.9664    0.0319 H   0  0  0  0  0  0  0  0  0  0  0  0 
    2.9809    2.0311    1.2309 H   0  0  0  0  0  0  0  0  0  0  0  0 
    3.1650    0.2159   -1.2794 H   0  0  0  0  0  0  0  0  0  0  0  0 
  1 10  1  0  0  0  0 
  1  3  2  0  0  0  0 
  2  1  1  0  0  0  0 
  3 12  1  0  0  0  0 
  4  2  2  0  0  0  0 
  4  8  1  0  0  0  0 
  5  3  1  0  0  0  0 
  5 14  1  0  0  0  0 
  6 15  1  0  0  0  0 
  7  6  1  0  0  0  0 
  7 18  1  0  0  0  0 
  8  5  2  0  0  0  0 
  9  8  1  0  0  0  0 
  9  7  1  0  0  0  0 
  9  6  1  0  0  0  0 
 11  2  1  0  0  0  0 
 13  4  1  0  0  0  0 
 16  6  1  0  0  0  0 
 17  7  1  0  0  0  0 
 19  9  1  0  0  0  0 
M  END 
>  <HBA> 
0 
 
>  <HBD> 
0 
 
>  <TPSA> 
0.0 
 
>  <cid> 
70112 
 
>  <dipole> 
0.25 
 
>  <excitation_energy_1> 
5.267 
 
>  <excitation_energy_2> 
5.789 
 
>  <excitation_energy_3> 
6.089 
 
>  <excitation_energy_4> 
6.284 
 
>  <homo_energy> 
-6.403 
 
>  <homo_lumo_gap> 
6.482 
 
>  <logP> 
2.564 
 
>  <lumo_energy> 
0.079 
 
>  <melting_point> 
28.4 
 
>  <molecular_refractivity> 
38.91 
 
>  <oscillator_strength_1> 
0.0001 
 
>  <oscillator_strength_2> 
0.0665 
 
>  <oscillator_strength_3> 
0.0022 
 
>  <oscillator_strength_4> 
0.0125 
 
>  <open_babel_can_smiles> 
C1CC1c1ccccc1 
 
>  <mulliken_charges> 
19 
1   -0.129686 
2   -0.129999 
3   -0.129843 
4   -0.174856 
5   -0.174664 
6   -0.308151 
7   -0.308668 
8   0.146409 
9   -0.189355 
10   0.126645 
11   0.127083 
12   0.127063 
13   0.126197 
14   0.12615 
15   0.155797 
16   0.148495 
17   0.148517 
18   0.155743 
19   0.157122 
 
>  <lowdin_charges> 
19 
1   -0.157958 
2   -0.158465 
3   -0.156946 
4   -0.162032 
5   -0.163465 
6   -0.312356 
7   -0.315 
8   -0.001929 
9   -0.15252 
10   0.154335 
11   0.157023 
12   0.155956 
13   0.156786 
14   0.157843 
15   0.160891 
16   0.157576 
17   0.158604 
18   0.161942 
19   0.159715 
 
$$$$ 
 
