PCCDB-ID:  20668 
public computational chemistry database (PCCDB) project, http://pccdb.org 
 
 27 27  0  0  1  0  0  0  0  0999 V2000 
   -3.8540    0.0554    0.7232 C   0  0  0  0  0  0  0  0  0  0  0  0 
   -3.3042   -1.0365    1.3976 C   0  0  0  0  0  0  0  0  0  0  0  0 
   -3.0448    0.8387   -0.1017 C   0  0  0  0  0  0  0  0  0  0  0  0 
   -1.9510   -1.3424    1.2488 C   0  0  0  0  0  0  0  0  0  0  0  0 
   -1.6909    0.5327   -0.2481 C   0  0  0  0  0  0  0  0  0  0  0  0 
    0.3391   -0.9025    0.2503 C   0  0  0  0  0  0  0  0  0  0  0  0 
    2.9778   -1.8695   -0.4602 C   0  0  0  0  0  0  0  0  0  0  0  0 
   -1.1249   -0.5601    0.4278 C   0  0  0  0  0  0  0  0  0  0  0  0 
    0.6647   -1.7757   -0.9662 C   0  0  0  0  0  0  0  0  0  0  0  0 
    4.1959   -2.5486   -1.0738 C   0  0  1  0  0  0  0  0  0  0  0  0 
    1.8227   -2.1970   -1.2737 N   0  0  0  0  0  0  0  0  0  0  0  0 
    5.3877   -2.4772   -0.6091 N   0  0  0  0  0  0  0  0  0  0  0  0 
   -0.3569   -2.1212   -1.7792 O   0  0  0  0  0  0  0  0  0  0  0  0 
    3.9778   -3.2716   -2.1845 O   0  0  0  0  0  0  0  0  0  0  0  0 
    5.3727   -1.6578    0.5684 O   0  0  0  0  0  0  0  0  0  0  0  0 
   -4.9070    0.2951    0.8407 H   0  0  0  0  0  0  0  0  0  0  0  0 
   -3.9270   -1.6484    2.0442 H   0  0  0  0  0  0  0  0  0  0  0  0 
   -3.4643    1.6920   -0.6272 H   0  0  0  0  0  0  0  0  0  0  0  0 
   -1.5274   -2.1915    1.7801 H   0  0  0  0  0  0  0  0  0  0  0  0 
   -1.0630    1.1523   -0.8846 H   0  0  0  0  0  0  0  0  0  0  0  0 
    0.7183   -1.4213    1.1396 H   0  0  0  0  0  0  0  0  0  0  0  0 
    0.9369    0.0143    0.1647 H   0  0  0  0  0  0  0  0  0  0  0  0 
    3.1733   -0.7881   -0.4101 H   0  0  0  0  0  0  0  0  0  0  0  0 
    2.8826   -2.2064    0.5826 H   0  0  0  0  0  0  0  0  0  0  0  0 
   -1.1805   -1.7377   -1.4296 H   0  0  0  0  0  0  0  0  0  0  0  0 
    3.0084   -3.1798   -2.3470 H   0  0  0  0  0  0  0  0  0  0  0  0 
    6.3071   -1.6827    0.8206 H   0  0  0  0  0  0  0  0  0  0  0  0 
  1 16  1  0  0  0  0 
  1  2  2  0  0  0  0 
  2 17  1  0  0  0  0 
  3  1  1  0  0  0  0 
  4  2  1  0  0  0  0 
  4 19  1  0  0  0  0 
  5  3  2  0  0  0  0 
  5  8  1  0  0  0  0 
  6  8  1  0  0  0  0 
  6 21  1  0  0  0  0 
  7 23  1  0  0  0  0 
  7 24  1  0  0  0  0 
  8  4  2  0  0  0  0 
  9  6  1  0  0  0  0 
 10 14  1  1  0  0  0 
 10 12  1  0  0  0  0 
 10  7  1  0  0  0  0 
 11  9  2  0  0  0  0 
 11  7  1  0  0  0  0 
 12 15  1  0  0  0  0 
 13 25  1  0  0  0  0 
 13  9  1  0  0  0  0 
 15 27  1  0  0  0  0 
 18  3  1  0  0  0  0 
 20  5  1  0  0  0  0 
 22  6  1  0  0  0  0 
 26 14  1  0  0  0  0 
M  RAD  2  10   2  12   2 
M  END 
>  <HBA> 
5 
 
>  <HBD> 
3 
 
>  <TPSA> 
78.43 
 
>  <cid> 
20668 
 
>  <dipole> 
7.73 
 
>  <excitation_energy_1> 
4.397 
 
>  <excitation_energy_2> 
4.472 
 
>  <excitation_energy_3> 
5.101 
 
>  <excitation_energy_4> 
5.149 
 
>  <homo_energy> 
-5.57 
 
>  <homo_lumo_gap> 
4.689 
 
>  <logP> 
0.632 
 
>  <lumo_energy> 
-0.882 
 
>  <melting_point> 
156.2 
 
>  <molecular_refractivity> 
52.56 
 
>  <oscillator_strength_1> 
0.0 
 
>  <oscillator_strength_2> 
0.0008 
 
>  <oscillator_strength_3> 
0.0011 
 
>  <oscillator_strength_4> 
0.0026 
 
>  <open_babel_can_smiles> 
O[N][C](C/N=C(\Cc1ccccc1)/O)O 
 
>  <mulliken_charges> 
27 
1   -0.126114 
2   -0.126279 
3   -0.124894 
4   -0.163186 
5   -0.172103 
6   -0.438578 
7   -0.193483 
8   0.07067 
9   0.500396 
10   0.525002 
11   -0.481621 
12   -0.279025 
13   -0.57155 
14   -0.601346 
15   -0.544984 
16   0.143728 
17   0.144793 
18   0.145052 
19   0.14207 
20   0.143485 
21   0.189322 
22   0.191431 
23   0.179281 
24   0.178345 
25   0.422944 
26   0.432136 
27   0.414509 
 
>  <lowdin_charges> 
27 
1   -0.1474 
2   -0.149654 
3   -0.149288 
4   -0.162989 
5   -0.169767 
6   -0.306973 
7   -0.225088 
8   -0.032022 
9   0.142035 
10   0.091928 
11   -0.230937 
12   -0.119917 
13   -0.346891 
14   -0.359586 
15   -0.412199 
16   0.163245 
17   0.166593 
18   0.165864 
19   0.163558 
20   0.164651 
21   0.178347 
22   0.179032 
23   0.162878 
24   0.162543 
25   0.363069 
26   0.357412 
27   0.351555 
 
$$$$ 
 
