PCCDB-ID:  67512 
public computational chemistry database (PCCDB) project, http://pccdb.org 
 
 20 21  0  0  1  0  0  0  0  0999 V2000 
   -1.6377    0.0012    0.7239 C   0  0  0  0  0  0  0  0  0  0  0  0 
   -1.3786    1.3216   -0.0302 C   0  0  0  0  0  0  0  0  0  0  0  0 
   -1.3806   -1.3197   -0.0303 C   0  0  0  0  0  0  0  0  0  0  0  0 
    0.0435    1.4772   -0.6338 C   0  0  0  0  0  0  0  0  0  0  0  0 
    0.0413   -1.4773   -0.6339 C   0  0  0  0  0  0  0  0  0  0  0  0 
    1.1092    0.7352    0.1540 C   0  0  1  0  0  0  0  0  0  0  0  0 
    1.1081   -0.7369    0.1540 C   0  0  2  0  0  0  0  0  0  0  0  0 
    2.0944   -0.0016   -0.5930 O   0  0  0  0  0  0  0  0  0  0  0  0 
   -2.6820    0.0019    1.0632 H   0  0  0  0  0  0  0  0  0  0  0  0 
   -1.0319    0.0006    1.6392 H   0  0  0  0  0  0  0  0  0  0  0  0 
   -1.5693    2.1413    0.6747 H   0  0  0  0  0  0  0  0  0  0  0  0 
   -2.1151    1.4431   -0.8356 H   0  0  0  0  0  0  0  0  0  0  0  0 
   -2.1173   -1.4400   -0.8357 H   0  0  0  0  0  0  0  0  0  0  0  0 
   -1.5726   -2.1391    0.6745 H   0  0  0  0  0  0  0  0  0  0  0  0 
    0.3017    2.5405   -0.7117 H   0  0  0  0  0  0  0  0  0  0  0  0 
    0.0623    1.0867   -1.6553 H   0  0  0  0  0  0  0  0  0  0  0  0 
    0.0607   -1.0867   -1.6554 H   0  0  0  0  0  0  0  0  0  0  0  0 
    0.2979   -2.5409   -0.7119 H   0  0  0  0  0  0  0  0  0  0  0  0 
    1.5148    1.2472    1.0296 H   0  0  0  0  0  0  0  0  0  0  0  0 
    1.5131   -1.2496    1.0295 H   0  0  0  0  0  0  0  0  0  0  0  0 
  1  9  1  0  0  0  0 
  1 10  1  0  0  0  0 
  2 11  1  0  0  0  0 
  2  1  1  0  0  0  0 
  3 14  1  0  0  0  0 
  3  1  1  0  0  0  0 
  4  2  1  0  0  0  0 
  4  6  1  0  0  0  0 
  5  3  1  0  0  0  0 
  5  7  1  0  0  0  0 
  6 19  1  1  0  0  0 
  7  6  1  0  0  0  0 
  7 20  1  1  0  0  0 
  8  7  1  0  0  0  0 
  8  6  1  0  0  0  0 
 12  2  1  0  0  0  0 
 13  3  1  0  0  0  0 
 15  4  1  0  0  0  0 
 16  4  1  0  0  0  0 
 17  5  1  0  0  0  0 
 18  5  1  0  0  0  0 
M  END 
>  <HBA> 
1 
 
>  <HBD> 
0 
 
>  <TPSA> 
12.53 
 
>  <cid> 
67512 
 
>  <dipole> 
2.17 
 
>  <excitation_energy_1> 
6.542 
 
>  <excitation_energy_2> 
6.863 
 
>  <excitation_energy_3> 
7.006 
 
>  <excitation_energy_4> 
7.064 
 
>  <homo_energy> 
-6.95 
 
>  <homo_lumo_gap> 
8.901 
 
>  <logP> 
1.718 
 
>  <lumo_energy> 
1.951 
 
>  <melting_point> 
8.98 
 
>  <molecular_refractivity> 
32.62 
 
>  <oscillator_strength_1> 
0.0149 
 
>  <oscillator_strength_2> 
0.0104 
 
>  <oscillator_strength_3> 
0.0018 
 
>  <oscillator_strength_4> 
0.0011 
 
>  <open_babel_can_smiles> 
C1CC[C@@H]2[C@H](CC1)O2 
 
>  <mulliken_charges> 
20 
1   -0.26604 
2   -0.262087 
3   -0.262089 
4   -0.29722 
5   -0.297225 
6   0.08888 
7   0.088851 
8   -0.469401 
9   0.132264 
10   0.135753 
11   0.135829 
12   0.136157 
13   0.136159 
14   0.135831 
15   0.141801 
16   0.155434 
17   0.15544 
18   0.141802 
19   0.134926 
20   0.134938 
 
>  <lowdin_charges> 
20 
1   -0.280487 
2   -0.280775 
3   -0.280777 
4   -0.288978 
5   -0.288971 
6   -0.030515 
7   -0.030511 
8   -0.28916 
9   0.145188 
10   0.141238 
11   0.145407 
12   0.144899 
13   0.144898 
14   0.14541 
15   0.15038 
16   0.155316 
17   0.15532 
18   0.150373 
19   0.145868 
20   0.145876 
 
$$$$ 
 
