PCCDB-ID:  46359 
public computational chemistry database (PCCDB) project, http://pccdb.org 
 
 36 36  0  0  1  0  0  0  0  0999 V2000 
    0.3510    1.9551    3.1852 C   0  0  0  0  0  0  0  0  0  0  0  0 
    1.1892    2.6083    2.0562 C   0  0  0  0  0  0  0  0  0  0  0  0 
   -3.3363   -0.2779    1.8084 C   0  0  0  0  0  0  0  0  0  0  0  0 
    2.1668   -0.7570   -1.6049 C   0  0  0  0  0  0  0  0  0  0  0  0 
   -4.5699    0.5682    1.4969 C   0  0  0  0  0  0  0  0  0  0  0  0 
    1.5121   -1.7425   -2.5714 C   0  0  0  0  0  0  0  0  0  0  0  0 
   -0.9537   -0.2131    2.3186 C   0  0  0  0  0  0  0  0  0  0  0  0 
    1.7446    0.9244    0.1150 C   0  0  0  0  0  0  0  0  0  0  0  0 
    0.3125    0.6442    2.3453 C   0  0  1  0  0  0  0  0  0  0  0  0 
    0.7199    1.4838    1.0928 C   0  0  1  0  0  0  0  0  0  0  0  0 
   -2.1452    0.5458    1.9478 N   0  0  0  0  0  0  0  0  0  0  0  0 
    1.1904   -0.1556   -0.7040 N   0  0  0  0  0  0  0  0  0  0  0  0 
   -5.0492    1.7411    2.8414 S   0  0  0  0  0  0  0  0  0  0  0  0 
    0.6994   -3.1927   -1.7625 S   0  0  0  0  0  0  0  0  0  0  0  0 
   -0.6339    2.4267    3.2696 H   0  0  0  0  0  0  0  0  0  0  0  0 
    0.7929    1.8998    4.1854 H   0  0  0  0  0  0  0  0  0  0  0  0 
    2.2648    2.5411    2.2596 H   0  0  0  0  0  0  0  0  0  0  0  0 
    0.9520    3.6409    1.7809 H   0  0  0  0  0  0  0  0  0  0  0  0 
   -3.1806   -0.9696    0.9677 H   0  0  0  0  0  0  0  0  0  0  0  0 
   -3.5418   -0.9098    2.6967 H   0  0  0  0  0  0  0  0  0  0  0  0 
    2.6115    0.0498   -2.2047 H   0  0  0  0  0  0  0  0  0  0  0  0 
    3.0000   -1.2567   -1.0755 H   0  0  0  0  0  0  0  0  0  0  0  0 
   -5.4274   -0.0665    1.2575 H   0  0  0  0  0  0  0  0  0  0  0  0 
   -4.3670    1.2090    0.6338 H   0  0  0  0  0  0  0  0  0  0  0  0 
    2.2671   -2.1791   -3.2322 H   0  0  0  0  0  0  0  0  0  0  0  0 
    0.7690   -1.2346   -3.1913 H   0  0  0  0  0  0  0  0  0  0  0  0 
   -1.0655   -0.7252    3.2960 H   0  0  0  0  0  0  0  0  0  0  0  0 
   -0.8290   -1.0129    1.5740 H   0  0  0  0  0  0  0  0  0  0  0  0 
    2.6481    0.6099    0.6772 H   0  0  0  0  0  0  0  0  0  0  0  0 
    2.0691    1.7263   -0.5639 H   0  0  0  0  0  0  0  0  0  0  0  0 
    1.1520    0.0008    2.6454 H   0  0  0  0  0  0  0  0  0  0  0  0 
   -0.1825    1.7855    0.5507 H   0  0  0  0  0  0  0  0  0  0  0  0 
   -2.3331    1.2534    2.6569 H   0  0  0  0  0  0  0  0  0  0  0  0 
    0.8478   -0.8872   -0.0820 H   0  0  0  0  0  0  0  0  0  0  0  0 
   -5.3872    0.8018    3.7527 H   0  0  0  0  0  0  0  0  0  0  0  0 
   -0.4207   -2.5457   -1.3738 H   0  0  0  0  0  0  0  0  0  0  0  0 
  1 15  1  0  0  0  0 
  1 16  1  0  0  0  0 
  2 17  1  0  0  0  0 
  2  1  1  0  0  0  0 
  3 11  1  0  0  0  0 
  3 20  1  0  0  0  0 
  4 22  1  0  0  0  0 
  4 12  1  0  0  0  0 
  5  3  1  0  0  0  0 
  5 13  1  0  0  0  0 
  6 14  1  0  0  0  0 
  6  4  1  0  0  0  0 
  7  9  1  0  0  0  0 
  7 27  1  0  0  0  0 
  8 29  1  0  0  0  0 
  8 10  1  0  0  0  0 
  9 31  1  1  0  0  0 
  9  1  1  0  0  0  0 
 10 32  1  6  0  0  0 
 10  2  1  0  0  0  0 
 10  9  1  0  0  0  0 
 11  7  1  0  0  0  0 
 11 33  1  0  0  0  0 
 12 34  1  0  0  0  0 
 12  8  1  0  0  0  0 
 13 35  1  0  0  0  0 
 14 36  1  0  0  0  0 
 18  2  1  0  0  0  0 
 19  3  1  0  0  0  0 
 21  4  1  0  0  0  0 
 23  5  1  0  0  0  0 
 24  5  1  0  0  0  0 
 25  6  1  0  0  0  0 
 26  6  1  0  0  0  0 
 28  7  1  0  0  0  0 
 30  8  1  0  0  0  0 
M  END 
>  <HBA> 
4 
 
>  <HBD> 
4 
 
>  <TPSA> 
101.66 
 
>  <cid> 
46359 
 
>  <dipole> 
0.76 
 
>  <excitation_energy_1> 
5.205 
 
>  <excitation_energy_2> 
5.241 
 
>  <excitation_energy_3> 
5.37 
 
>  <excitation_energy_4> 
5.482 
 
>  <homo_energy> 
-5.992 
 
>  <homo_lumo_gap> 
6.645 
 
>  <logP> 
1.833 
 
>  <lumo_energy> 
0.653 
 
>  <melting_point> 
88.24 
 
>  <molecular_refractivity> 
69.53 
 
>  <oscillator_strength_1> 
0.0052 
 
>  <oscillator_strength_2> 
0.0033 
 
>  <oscillator_strength_3> 
0.0079 
 
>  <oscillator_strength_4> 
0.0077 
 
>  <open_babel_can_smiles> 
SCCNC[C@@H]1CC[C@H]1CNCCS 
 
>  <mulliken_charges> 
36 
1   -0.294239 
2   -0.290997 
3   -0.095956 
4   -0.097846 
5   -0.424634 
6   -0.417459 
7   -0.126365 
8   -0.12354 
9   -0.101688 
10   -0.087846 
11   -0.561559 
12   -0.569113 
13   -0.094357 
14   -0.101387 
15   0.140515 
16   0.135255 
17   0.13301 
18   0.137904 
19   0.145896 
20   0.111797 
21   0.143286 
22   0.125298 
23   0.178385 
24   0.194485 
25   0.176598 
26   0.187753 
27   0.111801 
28   0.129657 
29   0.102408 
30   0.136414 
31   0.118079 
32   0.154322 
33   0.321208 
34   0.306008 
35   0.095577 
36   0.101329 
 
>  <lowdin_charges> 
36 
1   -0.28641 
2   -0.279933 
3   -0.203858 
4   -0.207481 
5   -0.375636 
6   -0.374927 
7   -0.20329 
8   -0.202869 
9   -0.141198 
10   -0.139585 
11   -0.365839 
12   -0.369519 
13   -0.091728 
14   -0.098832 
15   0.145029 
16   0.141529 
17   0.140988 
18   0.142723 
19   0.147002 
20   0.11714 
21   0.147971 
22   0.125172 
23   0.165041 
24   0.176747 
25   0.169973 
26   0.169571 
27   0.118488 
28   0.137956 
29   0.112245 
30   0.142223 
31   0.141591 
32   0.15802 
33   0.258831 
34   0.253118 
35   0.113561 
36   0.116183 
 
$$$$ 
 
