PCCDB-ID:  28941 
public computational chemistry database (PCCDB) project, http://pccdb.org 
 
 34 34  0  0  1  0  0  0  0  0999 V2000 
    1.1244    0.1409    0.2374 C   0  0  0  0  0  0  0  0  0  0  0  0 
    3.7235    3.5913    1.5793 C   0  0  0  0  0  0  0  0  0  0  0  0 
    1.5731    0.7902   -3.8852 C   0  0  0  0  0  0  0  0  0  0  0  0 
    2.2091   -0.6329    0.2059 C   0  0  0  0  0  0  0  0  0  0  0  0 
    6.6085   -2.3526   -0.3070 C   0  0  0  0  0  0  0  0  0  0  0  0 
    7.2782   -1.2971    0.3122 C   0  0  0  0  0  0  0  0  0  0  0  0 
    5.2850   -2.1870   -0.7130 C   0  0  0  0  0  0  0  0  0  0  0  0 
    6.6203   -0.0868    0.5192 C   0  0  0  0  0  0  0  0  0  0  0  0 
    2.9930    0.1696   -2.1147 C   0  0  0  0  0  0  0  0  0  0  0  0 
    3.1431   -0.8500   -0.9737 C   0  0  1  0  0  0  0  0  0  0  0  0 
    4.5965   -0.9803   -0.5248 C   0  0  0  0  0  0  0  0  0  0  0  0 
    5.3010    0.0625    0.0936 C   0  0  0  0  0  0  0  0  0  0  0  0 
    5.0855    2.4632    0.0186 C   0  0  0  0  0  0  0  0  0  0  0  0 
    4.7060    3.5631    0.5082 N   0  0  0  0  0  0  0  0  0  0  0  0 
    6.0019    2.4038   -0.9771 O   0  0  0  0  0  0  0  0  0  0  0  0 
    1.7661   -0.0724   -2.7845 O   0  0  0  0  0  0  0  0  0  0  0  0 
    4.6032    1.2403    0.3674 O   0  0  0  0  0  0  0  0  0  0  0  0 
    0.5167    0.2118    1.1357 H   0  0  0  0  0  0  0  0  0  0  0  0 
    0.7927    0.7067   -0.6269 H   0  0  0  0  0  0  0  0  0  0  0  0 
    4.1502    4.1131    2.4447 H   0  0  0  0  0  0  0  0  0  0  0  0 
    3.3797    2.6003    1.8981 H   0  0  0  0  0  0  0  0  0  0  0  0 
    2.8523    4.1720    1.2528 H   0  0  0  0  0  0  0  0  0  0  0  0 
    0.6108    0.5303   -4.3343 H   0  0  0  0  0  0  0  0  0  0  0  0 
    2.3658    0.6683   -4.6414 H   0  0  0  0  0  0  0  0  0  0  0  0 
    1.5507    1.8484   -3.5783 H   0  0  0  0  0  0  0  0  0  0  0  0 
    2.4748   -1.2055    1.0951 H   0  0  0  0  0  0  0  0  0  0  0  0 
    7.1114   -3.3013   -0.4708 H   0  0  0  0  0  0  0  0  0  0  0  0 
    8.3073   -1.4131    0.6402 H   0  0  0  0  0  0  0  0  0  0  0  0 
    4.7631   -3.0127   -1.1905 H   0  0  0  0  0  0  0  0  0  0  0  0 
    7.1212    0.7438    1.0058 H   0  0  0  0  0  0  0  0  0  0  0  0 
    3.8333    0.0543   -2.8189 H   0  0  0  0  0  0  0  0  0  0  0  0 
    3.0212    1.1980   -1.7257 H   0  0  0  0  0  0  0  0  0  0  0  0 
    2.8773   -1.8204   -1.4192 H   0  0  0  0  0  0  0  0  0  0  0  0 
    6.2459    3.3318   -1.1421 H   0  0  0  0  0  0  0  0  0  0  0  0 
  1 18  1  0  0  0  0 
  2 21  1  0  0  0  0 
  2 20  1  0  0  0  0 
  3 25  1  0  0  0  0 
  3 16  1  0  0  0  0 
  4  1  2  0  0  0  0 
  4 26  1  0  0  0  0 
  5  6  2  0  0  0  0 
  6  8  1  0  0  0  0 
  6 28  1  0  0  0  0 
  7 11  2  0  0  0  0 
  7  5  1  0  0  0  0 
  8 30  1  0  0  0  0 
  9 32  1  0  0  0  0 
  9 10  1  0  0  0  0 
 10 33  1  6  0  0  0 
 10 11  1  0  0  0  0 
 10  4  1  0  0  0  0 
 11 12  1  0  0  0  0 
 12 17  1  0  0  0  0 
 12  8  2  0  0  0  0 
 13 17  1  0  0  0  0 
 13 14  2  0  0  0  0 
 14  2  1  0  0  0  0 
 15 13  1  0  0  0  0 
 16  9  1  0  0  0  0 
 19  1  1  0  0  0  0 
 22  2  1  0  0  0  0 
 23  3  1  0  0  0  0 
 24  3  1  0  0  0  0 
 27  5  1  0  0  0  0 
 29  7  1  0  0  0  0 
 31  9  1  0  0  0  0 
 34 15  1  0  0  0  0 
M  END 
>  <HBA> 
4 
 
>  <HBD> 
1 
 
>  <TPSA> 
47.56 
 
>  <cid> 
28941 
 
>  <dipole> 
1.52 
 
>  <excitation_energy_1> 
5.126 
 
>  <excitation_energy_2> 
5.513 
 
>  <excitation_energy_3> 
5.592 
 
>  <excitation_energy_4> 
5.719 
 
>  <homo_energy> 
-6.343 
 
>  <homo_lumo_gap> 
6.123 
 
>  <logP> 
2.712 
 
>  <lumo_energy> 
-0.22 
 
>  <melting_point> 
39.29 
 
>  <molecular_refractivity> 
65.94 
 
>  <oscillator_strength_1> 
0.0194 
 
>  <oscillator_strength_2> 
0.0451 
 
>  <oscillator_strength_3> 
0.0369 
 
>  <oscillator_strength_4> 
0.0239 
 
>  <open_babel_can_smiles> 
COC[C@@H](c1ccccc1O/C(=N\C)/O)C=C 
 
>  <mulliken_charges> 
34 
1   -0.338794 
2   -0.328805 
3   -0.192517 
4   -0.043397 
5   -0.116755 
6   -0.144685 
7   -0.213209 
8   -0.134556 
9   -0.028053 
10   -0.205208 
11   0.111173 
12   0.305086 
13   0.701743 
14   -0.477561 
15   -0.593127 
16   -0.464476 
17   -0.534435 
18   0.132719 
19   0.151149 
20   0.152598 
21   0.162737 
22   0.155257 
23   0.158547 
24   0.130078 
25   0.131336 
26   0.125758 
27   0.13218 
28   0.135865 
29   0.134425 
30   0.142726 
31   0.129337 
32   0.138587 
33   0.161733 
34   0.422547 
 
>  <lowdin_charges> 
34 
1   -0.341043 
2   -0.355915 
3   -0.278375 
4   -0.147138 
5   -0.162106 
6   -0.148638 
7   -0.160679 
8   -0.16981 
9   -0.131202 
10   -0.123153 
11   -0.020121 
12   0.099399 
13   0.185958 
14   -0.257268 
15   -0.363198 
16   -0.27133 
17   -0.155966 
18   0.156975 
19   0.164481 
20   0.151742 
21   0.148295 
22   0.153148 
23   0.15516 
24   0.132275 
25   0.130421 
26   0.152559 
27   0.160322 
28   0.160112 
29   0.160457 
30   0.169167 
31   0.135006 
32   0.13587 
33   0.164386 
34   0.37021 
 
$$$$ 
 
