PCCDB-ID:  67294 
public computational chemistry database (PCCDB) project, http://pccdb.org 
 
 24 24  0  0  0  0  0  0  0  0999 V2000 
   -0.3517    1.3766    0.2198 C   0  0  0  0  0  0  0  0  0  0  0  0 
   -1.3443    0.4368   -0.0396 C   0  0  0  0  0  0  0  0  0  0  0  0 
    1.2588   -0.4044    0.5134 C   0  0  0  0  0  0  0  0  0  0  0  0 
    0.2662   -1.3442    0.2540 C   0  0  0  0  0  0  0  0  0  0  0  0 
    0.9594    0.9661    0.4911 C   0  0  0  0  0  0  0  0  0  0  0  0 
   -1.0449   -0.9336   -0.0173 C   0  0  0  0  0  0  0  0  0  0  0  0 
    1.9766    2.0350    0.7643 C   0  0  0  0  0  0  0  0  0  0  0  0 
   -2.0621   -2.0025   -0.2905 C   0  0  0  0  0  0  0  0  0  0  0  0 
    4.3044    2.6624    0.6494 N   0  0  0  0  0  0  0  0  0  0  0  0 
   -4.3899   -2.6300   -0.1760 N   0  0  0  0  0  0  0  0  0  0  0  0 
    3.2923    1.6769    0.5819 N   0  0  0  0  0  0  0  0  0  0  0  0 
   -3.3778   -1.6444   -0.1081 N   0  0  0  0  0  0  0  0  0  0  0  0 
    1.6640    3.1655    1.1267 O   0  0  0  0  0  0  0  0  0  0  0  0 
   -1.7496   -3.1328   -0.6536 O   0  0  0  0  0  0  0  0  0  0  0  0 
   -0.5700    2.4393    0.2111 H   0  0  0  0  0  0  0  0  0  0  0  0 
   -2.3458    0.7754   -0.2892 H   0  0  0  0  0  0  0  0  0  0  0  0 
    2.2602   -0.7430    0.7633 H   0  0  0  0  0  0  0  0  0  0  0  0 
    0.4845   -2.4068    0.2628 H   0  0  0  0  0  0  0  0  0  0  0  0 
    4.5700    2.7498    1.6313 H   0  0  0  0  0  0  0  0  0  0  0  0 
    3.8529    3.5506    0.4165 H   0  0  0  0  0  0  0  0  0  0  0  0 
   -3.9386   -3.5183    0.0565 H   0  0  0  0  0  0  0  0  0  0  0  0 
   -4.6556   -2.7169   -1.1580 H   0  0  0  0  0  0  0  0  0  0  0  0 
    3.5091    0.9250   -0.0586 H   0  0  0  0  0  0  0  0  0  0  0  0 
   -3.5946   -0.8930    0.5331 H   0  0  0  0  0  0  0  0  0  0  0  0 
  1  5  2  0  0  0  0 
  2  6  2  0  0  0  0 
  2  1  1  0  0  0  0 
  3 17  1  0  0  0  0 
  4 18  1  0  0  0  0 
  4  3  2  0  0  0  0 
  5  3  1  0  0  0  0 
  5  7  1  0  0  0  0 
  6  4  1  0  0  0  0 
  7 13  2  0  0  0  0 
  8 12  1  0  0  0  0 
  8  6  1  0  0  0  0 
  9 19  1  0  0  0  0 
 10 12  1  0  0  0  0 
 10 21  1  0  0  0  0 
 11  9  1  0  0  0  0 
 11  7  1  0  0  0  0 
 12 24  1  0  0  0  0 
 14  8  2  0  0  0  0 
 15  1  1  0  0  0  0 
 16  2  1  0  0  0  0 
 20  9  1  0  0  0  0 
 22 10  1  0  0  0  0 
 23 11  1  0  0  0  0 
M  END 
>  <HBA> 
6 
 
>  <HBD> 
4 
 
>  <TPSA> 
110.24 
 
>  <cid> 
67294 
 
>  <dipole> 
0.0 
 
>  <excitation_energy_1> 
4.432 
 
>  <excitation_energy_2> 
4.444 
 
>  <excitation_energy_3> 
4.63 
 
>  <excitation_energy_4> 
4.715 
 
>  <homo_energy> 
-7.023 
 
>  <homo_lumo_gap> 
5.249 
 
>  <logP> 
1.076 
 
>  <lumo_energy> 
-1.774 
 
>  <melting_point> 
238.29 
 
>  <molecular_refractivity> 
48.24 
 
>  <oscillator_strength_1> 
0.0207 
 
>  <oscillator_strength_2> 
0.0 
 
>  <oscillator_strength_3> 
0.0734 
 
>  <oscillator_strength_4> 
0.0 
 
>  <open_babel_can_smiles> 
NNC(=O)c1ccc(cc1)C(=O)NN 
 
>  <mulliken_charges> 
24 
1   -0.162551 
2   -0.189203 
3   -0.189172 
4   -0.162679 
5   0.079571 
6   0.079659 
7   0.540394 
8   0.540359 
9   -0.563169 
10   -0.563191 
11   -0.504557 
12   -0.504543 
13   -0.514014 
14   -0.51399 
15   0.169364 
16   0.145457 
17   0.145446 
18   0.169346 
19   0.327395 
20   0.32857 
21   0.328565 
22   0.327401 
23   0.342774 
24   0.342769 
 
>  <lowdin_charges> 
24 
1   -0.129359 
2   -0.155328 
3   -0.155341 
4   -0.129362 
5   -0.031332 
6   -0.03133 
7   0.147912 
8   0.147929 
9   -0.455704 
10   -0.455719 
11   -0.234159 
12   -0.234169 
13   -0.304703 
14   -0.3047 
15   0.178564 
16   0.163573 
17   0.163567 
18   0.178557 
19   0.265268 
20   0.267375 
21   0.26737 
22   0.265271 
23   0.28791 
24   0.287909 
 
$$$$ 
 
