PCCDB-ID:  25245 
public computational chemistry database (PCCDB) project, http://pccdb.org 
 
 29 29  0  0  0  0  0  0  0  0999 V2000 
    1.4700    0.2964   -0.7692 C   0  0  0  0  0  0  0  0  0  0  0  0 
    2.9432   -1.3879    0.2530 C   0  0  0  0  0  0  0  0  0  0  0  0 
    6.4194    2.3079    4.0592 C   0  0  0  0  0  0  0  0  0  0  0  0 
    6.2214   -0.0580    3.4172 C   0  0  0  0  0  0  0  0  0  0  0  0 
    3.3604    3.1498    1.4756 C   0  0  0  0  0  0  0  0  0  0  0  0 
    3.1550    0.9859    0.8914 C   0  0  0  0  0  0  0  0  0  0  0  0 
    4.7359    1.6222    2.3927 C   0  0  0  0  0  0  0  0  0  0  0  0 
    3.3358    5.4807    2.1985 N   0  0  0  0  0  0  0  0  0  0  0  0 
    2.7009    2.2441    0.7390 N   0  0  0  0  0  0  0  0  0  0  0  0 
    4.3695    2.9215    2.3246 N   0  0  0  0  0  0  0  0  0  0  0  0 
    4.1683    0.6199    1.7015 N   0  0  0  0  0  0  0  0  0  0  0  0 
    2.9498    4.4473    1.3243 N   0  0  0  0  0  0  0  0  0  0  0  0 
    2.5331    0.0016    0.1747 N   0  0  0  0  0  0  0  0  0  0  0  0 
    5.7738    1.3093    3.2266 N   0  0  0  0  0  0  0  0  0  0  0  0 
    0.5630   -0.2663   -0.5085 H   0  0  0  0  0  0  0  0  0  0  0  0 
    1.7682    0.0069   -1.7871 H   0  0  0  0  0  0  0  0  0  0  0  0 
    1.2544    1.3623   -0.7467 H   0  0  0  0  0  0  0  0  0  0  0  0 
    2.0683   -2.0247    0.4402 H   0  0  0  0  0  0  0  0  0  0  0  0 
    3.6601   -1.5094    1.0617 H   0  0  0  0  0  0  0  0  0  0  0  0 
    3.4054   -1.7153   -0.6900 H   0  0  0  0  0  0  0  0  0  0  0  0 
    7.5053    2.2894    3.8955 H   0  0  0  0  0  0  0  0  0  0  0  0 
    6.2334    2.1065    5.1244 H   0  0  0  0  0  0  0  0  0  0  0  0 
    6.0314    3.2922    3.8073 H   0  0  0  0  0  0  0  0  0  0  0  0 
    7.3131   -0.1093    3.3128 H   0  0  0  0  0  0  0  0  0  0  0  0 
    5.7550   -0.6986    2.6723 H   0  0  0  0  0  0  0  0  0  0  0  0 
    5.9584   -0.4224    4.4214 H   0  0  0  0  0  0  0  0  0  0  0  0 
    4.2905    5.7439    1.9538 H   0  0  0  0  0  0  0  0  0  0  0  0 
    3.3994    5.0875    3.1396 H   0  0  0  0  0  0  0  0  0  0  0  0 
    2.0532    4.5781    0.8774 H   0  0  0  0  0  0  0  0  0  0  0  0 
  1 17  1  0  0  0  0 
  1 15  1  0  0  0  0 
  1 13  1  0  0  0  0 
  2 18  1  0  0  0  0 
  2 19  1  0  0  0  0 
  3 22  1  0  0  0  0 
  4 26  1  0  0  0  0 
  5 10  1  0  0  0  0 
  6 11  1  0  0  0  0 
  7 14  1  0  0  0  0 
  8 28  1  0  0  0  0 
  9  6  2  0  0  0  0 
  9  5  2  0  0  0  0 
 10  7  2  0  0  0  0 
 11  7  1  0  0  0  0 
 12  5  1  0  0  0  0 
 12  8  1  0  0  0  0 
 13  2  1  0  0  0  0 
 13  6  1  0  0  0  0 
 14  4  1  0  0  0  0 
 14  3  1  0  0  0  0 
 16  1  1  0  0  0  0 
 20  2  1  0  0  0  0 
 21  3  1  0  0  0  0 
 23  3  1  0  0  0  0 
 24  4  1  0  0  0  0 
 25  4  1  0  0  0  0 
 27  8  1  0  0  0  0 
 29 12  1  0  0  0  0 
M  RAD  1  11   2 
M  END 
>  <HBA> 
7 
 
>  <HBD> 
2 
 
>  <TPSA> 
83.2 
 
>  <cid> 
25245 
 
>  <dipole> 
1.91 
 
>  <excitation_energy_1> 
5.203 
 
>  <excitation_energy_2> 
5.33 
 
>  <excitation_energy_3> 
5.383 
 
>  <excitation_energy_4> 
5.601 
 
>  <homo_energy> 
-5.772 
 
>  <homo_lumo_gap> 
6.308 
 
>  <logP> 
0.062 
 
>  <lumo_energy> 
0.536 
 
>  <melting_point> 
160.0 
 
>  <molecular_refractivity> 
55.45 
 
>  <oscillator_strength_1> 
0.0013 
 
>  <oscillator_strength_2> 
0.0056 
 
>  <oscillator_strength_3> 
0.0359 
 
>  <oscillator_strength_4> 
0.0195 
 
>  <open_babel_can_smiles> 
NNC1=[N]=C([N]C(=N1)N(C)C)N(C)C 
 
>  <mulliken_charges> 
29 
1   -0.314314 
2   -0.314111 
3   -0.312606 
4   -0.314442 
5   0.681015 
6   0.718759 
7   0.716682 
8   -0.561803 
9   -0.591865 
10   -0.59585 
11   -0.605328 
12   -0.530269 
13   -0.463261 
14   -0.462597 
15   0.145805 
16   0.146026 
17   0.203553 
18   0.146103 
19   0.20027 
20   0.146911 
21   0.147375 
22   0.146106 
23   0.196683 
24   0.146835 
25   0.201902 
26   0.14682 
27   0.321371 
28   0.317047 
29   0.337184 
 
>  <lowdin_charges> 
29 
1   -0.352677 
2   -0.354441 
3   -0.351086 
4   -0.35192 
5   0.133285 
6   0.148853 
7   0.150909 
8   -0.453572 
9   -0.279613 
10   -0.289849 
11   -0.281719 
12   -0.224028 
13   -0.089372 
14   -0.089872 
15   0.14532 
16   0.143543 
17   0.181951 
18   0.14685 
19   0.180368 
20   0.144432 
21   0.144288 
22   0.142154 
23   0.179483 
24   0.144785 
25   0.181913 
26   0.143495 
27   0.261562 
28   0.25811 
29   0.286848 
 
$$$$ 
 
