PCCDB-ID:  26635 
public computational chemistry database (PCCDB) project, http://pccdb.org 
 
 33 32  0  0  1  0  0  0  0  0999 V2000 
    0.7541   -2.7405   -0.8507 C   0  0  0  0  0  0  0  0  0  0  0  0 
    5.2504   -4.0475   -4.5195 C   0  0  0  0  0  0  0  0  0  0  0  0 
    4.7717    0.2242   -2.9260 C   0  0  0  0  0  0  0  0  0  0  0  0 
    2.2833   -2.8469   -0.8435 C   0  0  0  0  0  0  0  0  0  0  0  0 
    4.7937   -4.4159   -3.1012 C   0  0  0  0  0  0  0  0  0  0  0  0 
    2.9309   -2.1220   -2.0316 C   0  0  0  0  0  0  0  0  0  0  0  0 
    6.6861   -3.3013   -1.7642 C   0  0  0  0  0  0  0  0  0  0  0  0 
    5.1617   -3.4338   -1.9635 C   0  0  1  0  0  0  0  0  0  0  0  0 
    4.4713   -2.0415   -1.9927 C   0  0  1  0  0  0  0  0  0  0  0  0 
    7.2805   -4.5954   -1.4075 N   0  0  0  0  0  0  0  0  0  0  0  0 
    4.9472   -1.2127   -3.1133 N   0  0  0  0  0  0  0  0  0  0  0  0 
    0.3117   -3.2688    0.0017 H   0  0  0  0  0  0  0  0  0  0  0  0 
    0.3318   -3.1728   -1.7661 H   0  0  0  0  0  0  0  0  0  0  0  0 
    0.4293   -1.6939   -0.8003 H   0  0  0  0  0  0  0  0  0  0  0  0 
    4.8458   -3.0820   -4.8353 H   0  0  0  0  0  0  0  0  0  0  0  0 
    4.9200   -4.8139   -5.2309 H   0  0  0  0  0  0  0  0  0  0  0  0 
    6.3439   -3.9976   -4.5904 H   0  0  0  0  0  0  0  0  0  0  0  0 
    5.2872    0.7562   -3.7325 H   0  0  0  0  0  0  0  0  0  0  0  0 
    5.1569    0.6024   -1.9593 H   0  0  0  0  0  0  0  0  0  0  0  0 
    3.7125    0.4947   -2.9861 H   0  0  0  0  0  0  0  0  0  0  0  0 
    2.5664   -3.9074   -0.8462 H   0  0  0  0  0  0  0  0  0  0  0  0 
    2.6727   -2.4285    0.0963 H   0  0  0  0  0  0  0  0  0  0  0  0 
    5.2285   -5.3855   -2.8344 H   0  0  0  0  0  0  0  0  0  0  0  0 
    3.7052   -4.5564   -3.1034 H   0  0  0  0  0  0  0  0  0  0  0  0 
    2.5355   -1.0980   -2.0598 H   0  0  0  0  0  0  0  0  0  0  0  0 
    2.6195   -2.5884   -2.9746 H   0  0  0  0  0  0  0  0  0  0  0  0 
    6.8738   -2.5070   -1.0171 H   0  0  0  0  0  0  0  0  0  0  0  0 
    7.1745   -2.9778   -2.6921 H   0  0  0  0  0  0  0  0  0  0  0  0 
    4.7930   -3.9004   -1.0368 H   0  0  0  0  0  0  0  0  0  0  0  0 
    4.7397   -1.5570   -1.0284 H   0  0  0  0  0  0  0  0  0  0  0  0 
    6.9552   -4.8761   -0.4828 H   0  0  0  0  0  0  0  0  0  0  0  0 
    8.2924   -4.5047   -1.3360 H   0  0  0  0  0  0  0  0  0  0  0  0 
    5.9353   -1.3932   -3.2641 H   0  0  0  0  0  0  0  0  0  0  0  0 
  1  4  1  0  0  0  0 
  1 14  1  0  0  0  0 
  1 12  1  0  0  0  0 
  2  5  1  0  0  0  0 
  3 19  1  0  0  0  0 
  4 22  1  0  0  0  0 
  5 23  1  0  0  0  0 
  5  8  1  0  0  0  0 
  6  9  1  0  0  0  0 
  6  4  1  0  0  0  0 
  7 10  1  0  0  0  0 
  7 27  1  0  0  0  0 
  8  7  1  0  0  0  0 
  8 29  1  1  0  0  0 
  9  8  1  0  0  0  0 
  9 30  1  1  0  0  0 
 10 32  1  0  0  0  0 
 10 31  1  0  0  0  0 
 11  3  1  0  0  0  0 
 11  9  1  0  0  0  0 
 13  1  1  0  0  0  0 
 15  2  1  0  0  0  0 
 16  2  1  0  0  0  0 
 17  2  1  0  0  0  0 
 18  3  1  0  0  0  0 
 20  3  1  0  0  0  0 
 21  4  1  0  0  0  0 
 24  5  1  0  0  0  0 
 25  6  1  0  0  0  0 
 26  6  1  0  0  0  0 
 28  7  1  0  0  0  0 
 33 11  1  0  0  0  0 
M  END 
>  <HBA> 
2 
 
>  <HBD> 
2 
 
>  <TPSA> 
38.05 
 
>  <cid> 
26635 
 
>  <dipole> 
2.26 
 
>  <excitation_energy_1> 
5.248 
 
>  <excitation_energy_2> 
5.489 
 
>  <excitation_energy_3> 
5.512 
 
>  <excitation_energy_4> 
5.74 
 
>  <homo_energy> 
-5.796 
 
>  <homo_lumo_gap> 
7.807 
 
>  <logP> 
2.451 
 
>  <lumo_energy> 
2.011 
 
>  <melting_point> 
52.87 
 
>  <molecular_refractivity> 
50.89 
 
>  <oscillator_strength_1> 
0.0056 
 
>  <oscillator_strength_2> 
0.0029 
 
>  <oscillator_strength_3> 
0.0112 
 
>  <oscillator_strength_4> 
0.0198 
 
>  <open_babel_can_smiles> 
CCC[C@@H]([C@H](CN)CC)NC 
 
>  <mulliken_charges> 
33 
1   -0.441989 
2   -0.461396 
3   -0.304298 
4   -0.259969 
5   -0.248035 
6   -0.251057 
7   -0.152993 
8   -0.107541 
9   0.05674 
10   -0.717489 
11   -0.560425 
12   0.140115 
13   0.143577 
14   0.14069 
15   0.17059 
16   0.132449 
17   0.135807 
18   0.145809 
19   0.116989 
20   0.155676 
21   0.138841 
22   0.127409 
23   0.152859 
24   0.126504 
25   0.126884 
26   0.144755 
27   0.112166 
28   0.135231 
29   0.11952 
30   0.088918 
31   0.292895 
32   0.296758 
33   0.304011 
 
>  <lowdin_charges> 
33 
1   -0.443493 
2   -0.456377 
3   -0.360898 
4   -0.274682 
5   -0.274469 
6   -0.282044 
7   -0.214469 
8   -0.139868 
9   -0.062538 
10   -0.551361 
11   -0.358774 
12   0.149125 
13   0.147851 
14   0.144454 
15   0.158023 
16   0.146698 
17   0.140344 
18   0.15159 
19   0.119413 
20   0.146232 
21   0.139225 
22   0.137164 
23   0.153377 
24   0.136925 
25   0.140751 
26   0.147167 
27   0.118333 
28   0.137793 
29   0.140854 
30   0.108714 
31   0.250234 
32   0.253472 
33   0.251235 
 
$$$$ 
 
