PCCDB-ID:  6643 
public computational chemistry database (PCCDB) project, http://pccdb.org 
 
 28 28  0  0  0  0  0  0  0  0999 V2000 
    3.0590   -1.4389   -0.6091 C   0  0  0  0  0  0  0  0  0  0  0  0 
    2.5316    1.7733    1.5987 C   0  0  0  0  0  0  0  0  0  0  0  0 
    2.5011   -0.6020    2.3486 C   0  0  0  0  0  0  0  0  0  0  0  0 
    2.5994   -0.0611   -0.1204 C   0  0  0  0  0  0  0  0  0  0  0  0 
    5.3887   -0.3464    2.2455 C   0  0  0  0  0  0  0  0  0  0  0  0 
    5.3370    1.2491    0.4677 C   0  0  0  0  0  0  0  0  0  0  0  0 
    6.7837   -0.2700    2.2780 C   0  0  0  0  0  0  0  0  0  0  0  0 
    6.7243    1.3380    0.4839 C   0  0  0  0  0  0  0  0  0  0  0  0 
    4.6268    0.4072    1.3445 C   0  0  0  0  0  0  0  0  0  0  0  0 
    7.4590    0.5736    1.3963 C   0  0  0  0  0  0  0  0  0  0  0  0 
    3.0886    0.3603    1.2977 C   0  0  0  0  0  0  0  0  0  0  0  0 
    8.8228    0.6958    1.3751 O   0  0  0  0  0  0  0  0  0  0  0  0 
    2.6867   -1.6287   -1.6223 H   0  0  0  0  0  0  0  0  0  0  0  0 
    2.6875   -2.2466    0.0313 H   0  0  0  0  0  0  0  0  0  0  0  0 
    4.1517   -1.5086   -0.6351 H   0  0  0  0  0  0  0  0  0  0  0  0 
    1.4345    1.7679    1.5761 H   0  0  0  0  0  0  0  0  0  0  0  0 
    2.8755    2.5109    0.8658 H   0  0  0  0  0  0  0  0  0  0  0  0 
    2.8491    2.1158    2.5902 H   0  0  0  0  0  0  0  0  0  0  0  0 
    1.4081   -0.6151    2.2673 H   0  0  0  0  0  0  0  0  0  0  0  0 
    2.7517   -0.2830    3.3667 H   0  0  0  0  0  0  0  0  0  0  0  0 
    2.8537   -1.6307    2.2231 H   0  0  0  0  0  0  0  0  0  0  0  0 
    1.5008   -0.0235   -0.1202 H   0  0  0  0  0  0  0  0  0  0  0  0 
    2.9242    0.6974   -0.8444 H   0  0  0  0  0  0  0  0  0  0  0  0 
    4.9022   -1.0132    2.9489 H   0  0  0  0  0  0  0  0  0  0  0  0 
    4.7960    1.8568   -0.2526 H   0  0  0  0  0  0  0  0  0  0  0  0 
    7.3425   -0.8729    2.9925 H   0  0  0  0  0  0  0  0  0  0  0  0 
    7.2534    1.9945   -0.2000 H   0  0  0  0  0  0  0  0  0  0  0  0 
    9.1984    0.1156    2.0554 H   0  0  0  0  0  0  0  0  0  0  0  0 
  1  4  1  0  0  0  0 
  1 14  1  0  0  0  0 
  2 18  1  0  0  0  0 
  3 20  1  0  0  0  0 
  4 22  1  0  0  0  0 
  4 11  1  0  0  0  0 
  5  7  1  0  0  0  0 
  5 24  1  0  0  0  0 
  6  8  2  0  0  0  0 
  6  9  1  0  0  0  0 
  7 26  1  0  0  0  0 
  8 10  1  0  0  0  0 
  9  5  2  0  0  0  0 
 10  7  2  0  0  0  0 
 11  9  1  0  0  0  0 
 11  2  1  0  0  0  0 
 11  3  1  0  0  0  0 
 12 10  1  0  0  0  0 
 12 28  1  0  0  0  0 
 13  1  1  0  0  0  0 
 15  1  1  0  0  0  0 
 16  2  1  0  0  0  0 
 17  2  1  0  0  0  0 
 19  3  1  0  0  0  0 
 21  3  1  0  0  0  0 
 23  4  1  0  0  0  0 
 25  6  1  0  0  0  0 
 27  8  1  0  0  0  0 
M  END 
>  <HBA> 
1 
 
>  <HBD> 
1 
 
>  <TPSA> 
20.23 
 
>  <cid> 
6643 
 
>  <dipole> 
1.31 
 
>  <excitation_energy_1> 
4.955 
 
>  <excitation_energy_2> 
5.071 
 
>  <excitation_energy_3> 
5.497 
 
>  <excitation_energy_4> 
5.681 
 
>  <homo_energy> 
-5.758 
 
>  <homo_lumo_gap> 
5.821 
 
>  <logP> 
3.08 
 
>  <lumo_energy> 
0.063 
 
>  <melting_point> 
52.42 
 
>  <molecular_refractivity> 
52.54 
 
>  <oscillator_strength_1> 
0.0303 
 
>  <oscillator_strength_2> 
0.0 
 
>  <oscillator_strength_3> 
0.0016 
 
>  <oscillator_strength_4> 
0.0826 
 
>  <open_babel_can_smiles> 
CCC(c1ccc(cc1)O)(C)C 
 
>  <mulliken_charges> 
28 
1   -0.451574 
2   -0.441436 
3   -0.465513 
4   -0.245227 
5   -0.201374 
6   -0.195456 
7   -0.197145 
8   -0.160444 
9   0.173783 
10   0.351182 
11   0.020149 
12   -0.646133 
13   0.140122 
14   0.142164 
15   0.156545 
16   0.136164 
17   0.140916 
18   0.145499 
19   0.139991 
20   0.143979 
21   0.14837 
22   0.125915 
23   0.129001 
24   0.126231 
25   0.127278 
26   0.114263 
27   0.13682 
28   0.40593 
 
>  <lowdin_charges> 
28 
1   -0.448298 
2   -0.437506 
3   -0.441862 
4   -0.269616 
5   -0.162467 
6   -0.154704 
7   -0.218073 
8   -0.18648 
9   -0.020533 
10   0.100478 
11   0.014222 
12   -0.384448 
13   0.149174 
14   0.147054 
15   0.152688 
16   0.143278 
17   0.148605 
18   0.150466 
19   0.147878 
20   0.148513 
21   0.148615 
22   0.136803 
23   0.141044 
24   0.160892 
25   0.15695 
26   0.152442 
27   0.167095 
28   0.35779 
 
$$$$ 
 
