PCCDB-ID:  33151 
public computational chemistry database (PCCDB) project, http://pccdb.org 
 
 24 24  0  0  1  0  0  0  0  0999 V2000 
    2.0626   -1.0708    0.5699 C   0  0  0  0  0  0  0  0  0  0  0  0 
    6.4030    4.7679   -0.8027 C   0  0  0  0  0  0  0  0  0  0  0  0 
    2.1240   -0.0056   -0.2304 C   0  0  0  0  0  0  0  0  0  0  0  0 
    5.0807    4.8657   -0.9274 C   0  0  0  0  0  0  0  0  0  0  0  0 
    2.1749    2.5041    0.0720 C   0  0  0  0  0  0  0  0  0  0  0  0 
    3.0941    3.7312    0.1445 C   0  0  0  0  0  0  0  0  0  0  0  0 
    4.0370    1.3408   -1.1403 C   0  0  0  0  0  0  0  0  0  0  0  0 
    2.9973    1.1998   -0.0105 C   0  0  2  0  0  0  0  0  0  0  0  0 
    4.1251    3.7066   -1.0003 C   0  0  2  0  0  0  0  0  0  0  0  0 
    4.8581    2.4875   -0.9773 O   0  0  0  0  0  0  0  0  0  0  0  0 
    1.4106   -1.9130    0.3536 H   0  0  0  0  0  0  0  0  0  0  0  0 
    2.6609   -1.1409    1.4763 H   0  0  0  0  0  0  0  0  0  0  0  0 
    7.0314    5.6524   -0.7460 H   0  0  0  0  0  0  0  0  0  0  0  0 
    6.8938    3.8012   -0.7594 H   0  0  0  0  0  0  0  0  0  0  0  0 
    1.5020    0.0190   -1.1281 H   0  0  0  0  0  0  0  0  0  0  0  0 
    4.6030    5.8448   -0.9727 H   0  0  0  0  0  0  0  0  0  0  0  0 
    1.5345    2.5791   -0.8202 H   0  0  0  0  0  0  0  0  0  0  0  0 
    1.5032    2.4701    0.9378 H   0  0  0  0  0  0  0  0  0  0  0  0 
    3.6417    3.7415    1.0953 H   0  0  0  0  0  0  0  0  0  0  0  0 
    2.5060    4.6566    0.0955 H   0  0  0  0  0  0  0  0  0  0  0  0 
    3.5209    1.3808   -2.1167 H   0  0  0  0  0  0  0  0  0  0  0  0 
    4.7149    0.4824   -1.1516 H   0  0  0  0  0  0  0  0  0  0  0  0 
    3.5518    1.0753    0.9297 H   0  0  0  0  0  0  0  0  0  0  0  0 
    3.5690    3.7689   -1.9574 H   0  0  0  0  0  0  0  0  0  0  0  0 
  1 12  1  0  0  0  0 
  2 14  1  0  0  0  0 
  2 13  1  0  0  0  0 
  3  8  1  0  0  0  0 
  3  1  2  0  0  0  0 
  4  2  2  0  0  0  0 
  5  6  1  0  0  0  0 
  5 18  1  0  0  0  0 
  6 19  1  0  0  0  0 
  7 10  1  0  0  0  0 
  7  8  1  0  0  0  0 
  8  5  1  0  0  0  0 
  8 23  1  1  0  0  0 
  9 24  1  6  0  0  0 
  9 10  1  0  0  0  0 
  9  4  1  0  0  0  0 
  9  6  1  0  0  0  0 
 11  1  1  0  0  0  0 
 15  3  1  0  0  0  0 
 16  4  1  0  0  0  0 
 17  5  1  0  0  0  0 
 20  6  1  0  0  0  0 
 21  7  1  0  0  0  0 
 22  7  1  0  0  0  0 
M  END 
>  <HBA> 
1 
 
>  <HBD> 
0 
 
>  <TPSA> 
9.23 
 
>  <cid> 
33151 
 
>  <dipole> 
1.4 
 
>  <excitation_energy_1> 
6.016 
 
>  <excitation_energy_2> 
6.12 
 
>  <excitation_energy_3> 
6.28 
 
>  <excitation_energy_4> 
6.389 
 
>  <homo_energy> 
-6.498 
 
>  <homo_lumo_gap> 
6.931 
 
>  <logP> 
2.154 
 
>  <lumo_energy> 
0.433 
 
>  <melting_point> 
-56.12 
 
>  <molecular_refractivity> 
43.4 
 
>  <oscillator_strength_1> 
0.0443 
 
>  <oscillator_strength_2> 
0.0483 
 
>  <oscillator_strength_3> 
0.0286 
 
>  <oscillator_strength_4> 
0.0601 
 
>  <open_babel_can_smiles> 
C=C[C@@H]1CC[C@H](CO1)C=C 
 
>  <mulliken_charges> 
24 
1   -0.344889 
2   -0.329531 
3   -0.046325 
4   -0.092157 
5   -0.278442 
6   -0.275409 
7   -0.023705 
8   -0.144271 
9   0.133935 
10   -0.489704 
11   0.140591 
12   0.138764 
13   0.134231 
14   0.160831 
15   0.122637 
16   0.124394 
17   0.128352 
18   0.145652 
19   0.147849 
20   0.132554 
21   0.1147 
22   0.150563 
23   0.135248 
24   0.114133 
 
>  <lowdin_charges> 
24 
1   -0.338707 
2   -0.332992 
3   -0.146264 
4   -0.163378 
5   -0.278734 
6   -0.290112 
7   -0.133602 
8   -0.140992 
9   0.005163 
10   -0.263488 
11   0.159517 
12   0.155394 
13   0.157935 
14   0.168948 
15   0.148482 
16   0.152491 
17   0.138614 
18   0.151253 
19   0.150526 
20   0.148231 
21   0.123947 
22   0.153625 
23   0.146999 
24   0.127147 
 
$$$$ 
 
