PCCDB-ID:  19927 
public computational chemistry database (PCCDB) project, http://pccdb.org 
 
 20 20  0  0  0  0  0  0  0  0999 V2000 
    1.0327    0.2727    0.1381 C   0  0  0  0  0  0  0  0  0  0  0  0 
    3.0918    0.1493    1.5759 C   0  0  0  0  0  0  0  0  0  0  0  0 
    2.8344   -1.4135   -0.3782 C   0  0  0  0  0  0  0  0  0  0  0  0 
    4.5304    1.3060   -0.8451 C   0  0  0  0  0  0  0  0  0  0  0  0 
    3.4645    2.3069   -0.5380 C   0  0  0  0  0  0  0  0  0  0  0  0 
    2.5468    0.0056    0.1391 C   0  0  0  0  0  0  0  0  0  0  0  0 
    3.1240    0.9302   -0.8674 N   0  0  0  0  0  0  0  0  0  0  0  0 
    0.5109   -0.4276    0.8003 H   0  0  0  0  0  0  0  0  0  0  0  0 
    0.6293    0.1657   -0.8737 H   0  0  0  0  0  0  0  0  0  0  0  0 
    0.8171    1.2907    0.4838 H   0  0  0  0  0  0  0  0  0  0  0  0 
    2.6032   -0.5824    2.2287 H   0  0  0  0  0  0  0  0  0  0  0  0 
    2.8919    1.1411    1.9963 H   0  0  0  0  0  0  0  0  0  0  0  0 
    4.1699   -0.0389    1.6306 H   0  0  0  0  0  0  0  0  0  0  0  0 
    2.3659   -2.1675    0.2646 H   0  0  0  0  0  0  0  0  0  0  0  0 
    3.9130   -1.6095   -0.4002 H   0  0  0  0  0  0  0  0  0  0  0  0 
    2.4483   -1.5316   -1.3956 H   0  0  0  0  0  0  0  0  0  0  0  0 
    5.1593    0.9897   -0.0130 H   0  0  0  0  0  0  0  0  0  0  0  0 
    5.0326    1.3051   -1.8113 H   0  0  0  0  0  0  0  0  0  0  0  0 
    3.1712    3.0529   -1.2751 H   0  0  0  0  0  0  0  0  0  0  0  0 
    3.3952    2.6470    0.4951 H   0  0  0  0  0  0  0  0  0  0  0  0 
  1  6  1  0  0  0  0 
  1 10  1  0  0  0  0 
  1  8  1  0  0  0  0 
  2 13  1  0  0  0  0 
  2 12  1  0  0  0  0 
  2 11  1  0  0  0  0 
  3  6  1  0  0  0  0 
  3 14  1  0  0  0  0 
  4  5  1  0  0  0  0 
  4 17  1  0  0  0  0 
  5 20  1  0  0  0  0 
  6  2  1  0  0  0  0 
  7  4  1  0  0  0  0 
  7  5  1  0  0  0  0 
  7  6  1  0  0  0  0 
  9  1  1  0  0  0  0 
 15  3  1  0  0  0  0 
 16  3  1  0  0  0  0 
 18  4  1  0  0  0  0 
 19  5  1  0  0  0  0 
M  END 
>  <HBA> 
1 
 
>  <HBD> 
0 
 
>  <TPSA> 
3.01 
 
>  <cid> 
19927 
 
>  <dipole> 
1.13 
 
>  <excitation_energy_1> 
5.699 
 
>  <excitation_energy_2> 
6.04 
 
>  <excitation_energy_3> 
6.054 
 
>  <excitation_energy_4> 
6.216 
 
>  <homo_energy> 
-6.033 
 
>  <homo_lumo_gap> 
8.272 
 
>  <logP> 
1.038 
 
>  <lumo_energy> 
2.24 
 
>  <melting_point> 
-4.25 
 
>  <molecular_refractivity> 
35.69 
 
>  <oscillator_strength_1> 
0.0009 
 
>  <oscillator_strength_2> 
0.0232 
 
>  <oscillator_strength_3> 
0.0023 
 
>  <oscillator_strength_4> 
0.0282 
 
>  <open_babel_can_smiles> 
CC(N1CC1)(C)C 
 
>  <mulliken_charges> 
20 
1   -0.434105 
2   -0.467887 
3   -0.434605 
4   -0.192163 
5   -0.192098 
6   0.21043 
7   -0.363918 
8   0.135173 
9   0.153866 
10   0.13918 
11   0.146934 
12   0.143119 
13   0.143074 
14   0.135245 
15   0.139257 
16   0.153966 
17   0.140862 
18   0.151393 
19   0.151391 
20   0.140886 
 
>  <lowdin_charges> 
20 
1   -0.442348 
2   -0.459277 
3   -0.441203 
4   -0.247142 
5   -0.245492 
6   0.072856 
7   -0.192969 
8   0.148332 
9   0.155808 
10   0.147636 
11   0.157245 
12   0.148032 
13   0.146733 
14   0.14819 
15   0.14669 
16   0.15567 
17   0.146213 
18   0.154844 
19   0.155967 
20   0.144215 
 
$$$$ 
 
