PCCDB-ID:  15493 
public computational chemistry database (PCCDB) project, http://pccdb.org 
 
 41 41  0  0  1  0  0  0  0  0999 V2000 
   -0.5375   -0.5501   -0.8110 C   0  0  0  0  0  0  0  0  0  0  0  0 
    3.2888   -2.1609    1.1772 C   0  0  0  0  0  0  0  0  0  0  0  0 
    2.5175    1.9946    2.0984 C   0  0  0  0  0  0  0  0  0  0  0  0 
    5.9513    5.9304   -0.2255 C   0  0  0  0  0  0  0  0  0  0  0  0 
    3.5649    5.7498   -0.3017 C   0  0  0  0  0  0  0  0  0  0  0  0 
    4.0728    2.8169   -1.2385 C   0  0  0  0  0  0  0  0  0  0  0  0 
    4.9387    4.0725   -1.3990 C   0  0  0  0  0  0  0  0  0  0  0  0 
    4.4914    1.9834   -0.0212 C   0  0  0  0  0  0  0  0  0  0  0  0 
    1.7806   -1.4750   -0.7853 C   0  0  0  0  0  0  0  0  0  0  0  0 
    1.2338    0.3988    0.7098 C   0  0  0  0  0  0  0  0  0  0  0  0 
    0.8925   -0.5756   -0.3177 C   0  0  0  0  0  0  0  0  0  0  0  0 
    3.1922   -1.6274   -0.2689 C   0  0  1  0  0  0  0  0  0  0  0  0 
    2.4222    1.0089    0.9509 C   0  0  0  0  0  0  0  0  0  0  0  0 
    3.9718   -0.3309   -0.5031 C   0  0  0  0  0  0  0  0  0  0  0  0 
    4.8214    5.0105   -0.2760 N   0  0  0  0  0  0  0  0  0  0  0  0 
    3.6033    0.8210    0.1985 N   0  0  0  0  0  0  0  0  0  0  0  0 
    4.9229   -0.3080   -1.2761 O   0  0  0  0  0  0  0  0  0  0  0  0 
   -0.7261   -1.3455   -1.5383 H   0  0  0  0  0  0  0  0  0  0  0  0 
   -0.7813    0.4103   -1.2832 H   0  0  0  0  0  0  0  0  0  0  0  0 
   -1.2416   -0.6806    0.0221 H   0  0  0  0  0  0  0  0  0  0  0  0 
    2.8393   -3.1584    1.2284 H   0  0  0  0  0  0  0  0  0  0  0  0 
    2.7661   -1.5203    1.8904 H   0  0  0  0  0  0  0  0  0  0  0  0 
    4.3375   -2.2444    1.4847 H   0  0  0  0  0  0  0  0  0  0  0  0 
    1.6180    1.9317    2.7153 H   0  0  0  0  0  0  0  0  0  0  0  0 
    2.6149    3.0338    1.7626 H   0  0  0  0  0  0  0  0  0  0  0  0 
    3.3832    1.7770    2.7357 H   0  0  0  0  0  0  0  0  0  0  0  0 
    5.8618    6.5754    0.6558 H   0  0  0  0  0  0  0  0  0  0  0  0 
    6.0242    6.5837   -1.1177 H   0  0  0  0  0  0  0  0  0  0  0  0 
    6.8864    5.3669   -0.1398 H   0  0  0  0  0  0  0  0  0  0  0  0 
    3.4949    6.3863    0.5872 H   0  0  0  0  0  0  0  0  0  0  0  0 
    2.7137    5.0629   -0.2879 H   0  0  0  0  0  0  0  0  0  0  0  0 
    3.4645    6.3977   -1.1957 H   0  0  0  0  0  0  0  0  0  0  0  0 
    4.1730    2.2018   -2.1393 H   0  0  0  0  0  0  0  0  0  0  0  0 
    3.0117    3.0849   -1.1555 H   0  0  0  0  0  0  0  0  0  0  0  0 
    4.7042    4.5660   -2.3633 H   0  0  0  0  0  0  0  0  0  0  0  0 
    5.9896    3.7625   -1.4598 H   0  0  0  0  0  0  0  0  0  0  0  0 
    4.5014    2.6074    0.8705 H   0  0  0  0  0  0  0  0  0  0  0  0 
    5.4977    1.5916   -0.1742 H   0  0  0  0  0  0  0  0  0  0  0  0 
    1.4781   -2.1465   -1.5869 H   0  0  0  0  0  0  0  0  0  0  0  0 
    0.4157    0.6975    1.3628 H   0  0  0  0  0  0  0  0  0  0  0  0 
    3.7145   -2.3378   -0.9149 H   0  0  0  0  0  0  0  0  0  0  0  0 
  1 11  1  0  0  0  0 
  1 20  1  0  0  0  0 
  2 21  1  0  0  0  0 
  2 23  1  0  0  0  0 
  2 22  1  0  0  0  0 
  3 24  1  0  0  0  0 
  3 26  1  0  0  0  0 
  4 29  1  0  0  0  0 
  4 27  1  0  0  0  0 
  5 31  1  0  0  0  0 
  5 15  1  0  0  0  0 
  5 30  1  0  0  0  0 
  6 34  1  0  0  0  0 
  6  8  1  0  0  0  0 
  7  6  1  0  0  0  0 
  7 15  1  0  0  0  0 
  8 16  1  0  0  0  0 
  8 37  1  0  0  0  0 
  9 11  2  0  0  0  0 
  9 12  1  0  0  0  0 
 10 13  2  0  0  0  0 
 10 40  1  0  0  0  0 
 11 10  1  0  0  0  0 
 12 41  1  6  0  0  0 
 12  2  1  0  0  0  0 
 13  3  1  0  0  0  0 
 14 12  1  0  0  0  0 
 14 16  1  0  0  0  0 
 15  4  1  0  0  0  0 
 16 13  1  0  0  0  0 
 17 14  2  0  0  0  0 
 18  1  1  0  0  0  0 
 19  1  1  0  0  0  0 
 25  3  1  0  0  0  0 
 28  4  1  0  0  0  0 
 32  5  1  0  0  0  0 
 33  6  1  0  0  0  0 
 35  7  1  0  0  0  0 
 36  7  1  0  0  0  0 
 38  8  1  0  0  0  0 
 39  9  1  0  0  0  0 
M  END 
>  <HBA> 
3 
 
>  <HBD> 
0 
 
>  <TPSA> 
23.55 
 
>  <cid> 
15493 
 
>  <dipole> 
3.07 
 
>  <excitation_energy_1> 
4.378 
 
>  <excitation_energy_2> 
4.792 
 
>  <excitation_energy_3> 
4.912 
 
>  <excitation_energy_4> 
5.056 
 
>  <homo_energy> 
-5.44 
 
>  <homo_lumo_gap> 
5.064 
 
>  <logP> 
2.204 
 
>  <lumo_energy> 
-0.376 
 
>  <melting_point> 
43.79 
 
>  <molecular_refractivity> 
76.26 
 
>  <oscillator_strength_1> 
0.1218 
 
>  <oscillator_strength_2> 
0.0021 
 
>  <oscillator_strength_3> 
0.0125 
 
>  <oscillator_strength_4> 
0.0286 
 
>  <open_babel_can_smiles> 
CN(CCCN1C(=CC(=C[C@@H](C1=O)C)C)C)C 
 
>  <mulliken_charges> 
41 
1   -0.519555 
2   -0.448655 
3   -0.535999 
4   -0.294831 
5   -0.302864 
6   -0.27108 
7   -0.12691 
8   -0.158749 
9   -0.215975 
10   -0.252857 
11   0.209849 
12   -0.191363 
13   0.331057 
14   0.57768 
15   -0.367851 
16   -0.499292 
17   -0.513683 
18   0.154865 
19   0.159485 
20   0.153572 
21   0.149592 
22   0.158978 
23   0.150138 
24   0.163688 
25   0.176755 
26   0.167684 
27   0.146728 
28   0.119049 
29   0.151083 
30   0.148279 
31   0.151286 
32   0.119358 
33   0.165203 
34   0.137517 
35   0.11532 
36   0.140997 
37   0.170369 
38   0.175152 
39   0.126831 
40   0.119773 
41   0.159373 
 
>  <lowdin_charges> 
41 
1   -0.438373 
2   -0.441504 
3   -0.446839 
4   -0.35714 
5   -0.361461 
6   -0.287729 
7   -0.197599 
8   -0.202046 
9   -0.185899 
10   -0.221466 
11   -0.007282 
12   -0.144909 
13   0.048398 
14   0.163595 
15   -0.187225 
16   -0.074826 
17   -0.304306 
18   0.157377 
19   0.157199 
20   0.156308 
21   0.153715 
22   0.158954 
23   0.151467 
24   0.163328 
25   0.163146 
26   0.162627 
27   0.149218 
28   0.121467 
29   0.150466 
30   0.150243 
31   0.149467 
32   0.121631 
33   0.162246 
34   0.140795 
35   0.122192 
36   0.145398 
37   0.160941 
38   0.166653 
39   0.154532 
40   0.157944 
41   0.1693 
 
$$$$ 
 
