PCCDB-ID:  69061 
public computational chemistry database (PCCDB) project, http://pccdb.org 
 
 25 27  0  0  0  0  0  0  0  0999 V2000 
    3.5610   -0.3037    0.0011 C   0  0  0  0  0  0  0  0  0  0  0  0 
    2.8832   -1.5369    0.0009 C   0  0  0  0  0  0  0  0  0  0  0  0 
    2.8338    0.8706    0.0004 C   0  0  0  0  0  0  0  0  0  0  0  0 
    1.5003   -1.5768    0.0006 C   0  0  0  0  0  0  0  0  0  0  0  0 
    0.6727    2.0807   -0.0007 C   0  0  0  0  0  0  0  0  0  0  0  0 
   -0.6867    2.0815   -0.0013 C   0  0  0  0  0  0  0  0  0  0  0  0 
   -2.8851   -1.5411    0.0003 C   0  0  0  0  0  0  0  0  0  0  0  0 
   -1.5033   -1.5737    0.0002 C   0  0  0  0  0  0  0  0  0  0  0  0 
   -2.8411    0.8732   -0.0008 C   0  0  0  0  0  0  0  0  0  0  0  0 
    1.4201    0.8550   -0.0004 C   0  0  0  0  0  0  0  0  0  0  0  0 
   -1.4311    0.8529   -0.0014 C   0  0  0  0  0  0  0  0  0  0  0  0 
   -3.5647   -0.3063   -0.0003 C   0  0  0  0  0  0  0  0  0  0  0  0 
    0.7268   -0.3923    0.0002 C   0  0  0  0  0  0  0  0  0  0  0  0 
   -0.7298   -0.3915   -0.0006 C   0  0  0  0  0  0  0  0  0  0  0  0 
   -4.9302   -0.2270   -0.0007 O   0  0  0  0  0  0  0  0  0  0  0  0 
    4.6471   -0.2773    0.0010 H   0  0  0  0  0  0  0  0  0  0  0  0 
    3.4477   -2.4655    0.0011 H   0  0  0  0  0  0  0  0  0  0  0  0 
    3.3429    1.8318    0.0002 H   0  0  0  0  0  0  0  0  0  0  0  0 
    1.0091   -2.5442   -0.0001 H   0  0  0  0  0  0  0  0  0  0  0  0 
    1.2232    3.0186   -0.0002 H   0  0  0  0  0  0  0  0  0  0  0  0 
   -1.2386    3.0182   -0.0006 H   0  0  0  0  0  0  0  0  0  0  0  0 
   -3.4514   -2.4710   -0.0006 H   0  0  0  0  0  0  0  0  0  0  0  0 
   -1.0155   -2.5424   -0.0002 H   0  0  0  0  0  0  0  0  0  0  0  0 
   -3.3726    1.8203   -0.0013 H   0  0  0  0  0  0  0  0  0  0  0  0 
   -5.2977   -1.1243    0.0006 H   0  0  0  0  0  0  0  0  0  0  0  0 
  2  1  1  0  0  0  0 
  2 17  1  0  0  0  0 
  3  1  2  0  0  0  0 
  4  2  2  0  0  0  0 
  5 10  2  0  0  0  0 
  5 20  1  0  0  0  0 
  6  5  1  0  0  0  0 
  6 21  1  0  0  0  0 
  8  7  2  0  0  0  0 
  9 12  2  0  0  0  0 
 10 13  1  0  0  0  0 
 10  3  1  0  0  0  0 
 11  6  2  0  0  0  0 
 11  9  1  0  0  0  0 
 11 14  1  0  0  0  0 
 12  7  1  0  0  0  0 
 13  4  1  0  0  0  0 
 14  8  1  0  0  0  0 
 14 13  2  0  0  0  0 
 15 12  1  0  0  0  0 
 15 25  1  0  0  0  0 
 16  1  1  0  0  0  0 
 18  3  1  0  0  0  0 
 19  4  1  0  0  0  0 
 22  7  1  0  0  0  0 
 23  8  1  0  0  0  0 
 24  9  1  0  0  0  0 
M  END 
>  <HBA> 
1 
 
>  <HBD> 
1 
 
>  <TPSA> 
20.23 
 
>  <cid> 
69061 
 
>  <dipole> 
1.5 
 
>  <excitation_energy_1> 
3.851 
 
>  <excitation_energy_2> 
4.135 
 
>  <excitation_energy_3> 
4.586 
 
>  <excitation_energy_4> 
4.666 
 
>  <homo_energy> 
-5.619 
 
>  <homo_lumo_gap> 
4.612 
 
>  <logP> 
3.699 
 
>  <lumo_energy> 
-1.007 
 
>  <melting_point> 
133.96 
 
>  <molecular_refractivity> 
63.48 
 
>  <oscillator_strength_1> 
0.0092 
 
>  <oscillator_strength_2> 
0.0192 
 
>  <oscillator_strength_3> 
0.1019 
 
>  <oscillator_strength_4> 
0.4785 
 
>  <open_babel_can_smiles> 
Oc1ccc2c(c1)ccc1c2cccc1 
 
>  <mulliken_charges> 
25 
1   -0.129454 
2   -0.138523 
3   -0.206672 
4   -0.189052 
5   -0.192886 
6   -0.194579 
7   -0.200498 
8   -0.195044 
9   -0.257277 
10   0.140168 
11   0.147109 
12   0.364051 
13   0.062714 
14   0.058812 
15   -0.645678 
16   0.128453 
17   0.12784 
18   0.128408 
19   0.129508 
20   0.129608 
21   0.130935 
22   0.119347 
23   0.136579 
24   0.138201 
25   0.407929 
 
>  <lowdin_charges> 
25 
1   -0.158271 
2   -0.157039 
3   -0.156562 
4   -0.161154 
5   -0.155114 
6   -0.160618 
7   -0.208802 
8   -0.144646 
9   -0.194353 
10   -0.005098 
11   0.010707 
12   0.10403 
13   0.001104 
14   -0.019132 
15   -0.377634 
16   0.156012 
17   0.157873 
18   0.156661 
19   0.155933 
20   0.158607 
21   0.159385 
22   0.154542 
23   0.159789 
24   0.167042 
25   0.356738 
 
$$$$ 
 
