PCCDB-ID:  59108 
public computational chemistry database (PCCDB) project, http://pccdb.org 
 
 26 25  0  0  1  0  0  0  0  0999 V2000 
    0.7403    0.0024    0.3834 C   0  0  0  0  0  0  0  0  0  0  0  0 
   -0.1884   -1.1423    0.8111 C   0  0  0  0  0  0  0  0  0  0  0  0 
    2.2208   -0.3994    0.2789 C   0  0  0  0  0  0  0  0  0  0  0  0 
   -1.6670   -0.7450    0.9035 C   0  0  0  0  0  0  0  0  0  0  0  0 
   -2.3463    0.9241   -0.7900 C   0  0  0  0  0  0  0  0  0  0  0  0 
    2.8719   -0.7723    1.6153 C   0  0  1  0  0  0  0  0  0  0  0  0 
    4.3721   -1.1211    1.5049 C   0  0  0  0  0  0  0  0  0  0  0  0 
   -2.4113    2.0436   -1.1073 N   0  0  0  0  0  0  0  0  0  0  0  0 
    4.9772   -1.6864    0.5427 N   0  0  0  0  0  0  0  0  0  0  0  0 
   -2.7817   -1.3067   -1.2911 N   0  0  0  0  0  0  0  0  0  0  0  0 
   -2.2557   -0.3586   -0.3975 N   0  0  0  0  0  0  0  0  0  0  0  0 
    2.6854    0.2538    2.6075 O   0  0  0  0  0  0  0  0  0  0  0  0 
    5.0643   -0.8044    2.6218 O   0  0  0  0  0  0  0  0  0  0  0  0 
   -2.6739   -2.4391   -0.8916 O   0  0  0  0  0  0  0  0  0  0  0  0 
    0.6394    0.8351    1.0909 H   0  0  0  0  0  0  0  0  0  0  0  0 
    0.4264    0.3848   -0.5952 H   0  0  0  0  0  0  0  0  0  0  0  0 
    0.0948   -1.5103    1.8055 H   0  0  0  0  0  0  0  0  0  0  0  0 
   -0.0921   -1.9907    0.1226 H   0  0  0  0  0  0  0  0  0  0  0  0 
    2.7912    0.4262   -0.1699 H   0  0  0  0  0  0  0  0  0  0  0  0 
    2.3183   -1.2461   -0.4123 H   0  0  0  0  0  0  0  0  0  0  0  0 
   -1.8138    0.1027    1.5780 H   0  0  0  0  0  0  0  0  0  0  0  0 
   -2.2667   -1.5861    1.2607 H   0  0  0  0  0  0  0  0  0  0  0  0 
    2.3701   -1.6456    2.0491 H   0  0  0  0  0  0  0  0  0  0  0  0 
    4.3369   -1.8751   -0.2283 H   0  0  0  0  0  0  0  0  0  0  0  0 
    2.9570    1.1002    2.2118 H   0  0  0  0  0  0  0  0  0  0  0  0 
    4.4377   -0.3386    3.2100 H   0  0  0  0  0  0  0  0  0  0  0  0 
  1  2  1  0  0  0  0 
  1 15  1  0  0  0  0 
  2  4  1  0  0  0  0 
  2 17  1  0  0  0  0 
  3  1  1  0  0  0  0 
  3  6  1  0  0  0  0 
  4 22  1  0  0  0  0 
  4 21  1  0  0  0  0 
  5 11  1  0  0  0  0 
  6 23  1  1  0  0  0 
  6 12  1  0  0  0  0 
  7  6  1  0  0  0  0 
  7 13  1  0  0  0  0 
  8  5  3  0  0  0  0 
  9  7  2  0  0  0  0 
 10 14  1  0  0  0  0 
 10 11  1  0  0  0  0 
 11  4  1  0  0  0  0 
 13 26  1  0  0  0  0 
 16  1  1  0  0  0  0 
 18  2  1  0  0  0  0 
 19  3  1  0  0  0  0 
 20  3  1  0  0  0  0 
 24  9  1  0  0  0  0 
 25 12  1  0  0  0  0 
M  RAD  2  10   2  14   2 
M  END 
>  <HBA> 
7 
 
>  <HBD> 
2 
 
>  <TPSA> 
119.78 
 
>  <cid> 
59108 
 
>  <dipole> 
3.02 
 
>  <excitation_energy_1> 
3.173 
 
>  <excitation_energy_2> 
4.146 
 
>  <excitation_energy_3> 
4.351 
 
>  <excitation_energy_4> 
4.923 
 
>  <homo_energy> 
-7.165 
 
>  <homo_lumo_gap> 
4.49 
 
>  <logP> 
0.168 
 
>  <lumo_energy> 
-2.675 
 
>  <melting_point> 
122.62 
 
>  <molecular_refractivity> 
47.22 
 
>  <oscillator_strength_1> 
0.0014 
 
>  <oscillator_strength_2> 
0.0002 
 
>  <oscillator_strength_3> 
0.0003 
 
>  <oscillator_strength_4> 
0.1159 
 
>  <open_babel_can_smiles> 
[O][N]N(CCCC[C@@H](C(=N)O)O)C#N 
 
>  <mulliken_charges> 
26 
1   -0.265125 
2   -0.27288 
3   -0.311185 
4   -0.172286 
5   0.578068 
6   0.040274 
7   0.461635 
8   -0.420159 
9   -0.587294 
10   0.204429 
11   -0.362784 
12   -0.633943 
13   -0.584356 
14   -0.292774 
15   0.148041 
16   0.160069 
17   0.16293 
18   0.165981 
19   0.153858 
20   0.152338 
21   0.187701 
22   0.197509 
23   0.180365 
24   0.285426 
25   0.404421 
26   0.41974 
 
>  <lowdin_charges> 
26 
1   -0.282694 
2   -0.281831 
3   -0.293793 
4   -0.200824 
5   0.010391 
6   -0.042341 
7   0.099692 
8   -0.113972 
9   -0.397935 
10   0.104095 
11   -0.025123 
12   -0.453979 
13   -0.361209 
14   -0.179028 
15   0.149578 
16   0.156774 
17   0.158588 
18   0.157863 
19   0.155562 
20   0.15605 
21   0.174829 
22   0.179352 
23   0.164747 
24   0.256209 
25   0.351587 
26   0.357411 
 
$$$$ 
 
