PCCDB-ID:  43809 
public computational chemistry database (PCCDB) project, http://pccdb.org 
 
 30 32  0  0  0  0  0  0  0  0999 V2000 
   -1.4701   -0.0301    0.2340 C   0  0  0  0  0  0  0  0  0  0  0  0 
   -0.8782    1.0123   -0.4816 C   0  0  0  0  0  0  0  0  0  0  0  0 
   -0.6608   -1.0143    0.8044 C   0  0  0  0  0  0  0  0  0  0  0  0 
    7.2786   -0.3332   -1.0872 C   0  0  0  0  0  0  0  0  0  0  0  0 
    7.3112    0.9904   -0.3045 C   0  0  0  0  0  0  0  0  0  0  0  0 
    6.1490   -1.2550   -0.5881 C   0  0  0  0  0  0  0  0  0  0  0  0 
    6.0300    1.8152   -0.5379 C   0  0  0  0  0  0  0  0  0  0  0  0 
    0.5057    1.0689   -0.6370 C   0  0  0  0  0  0  0  0  0  0  0  0 
    0.7255   -0.9560    0.6723 C   0  0  0  0  0  0  0  0  0  0  0  0 
    3.5709   -0.9473   -0.3179 C   0  0  0  0  0  0  0  0  0  0  0  0 
    3.4862    1.2995   -0.2577 C   0  0  0  0  0  0  0  0  0  0  0  0 
    4.8606   -0.4866   -0.4497 C   0  0  0  0  0  0  0  0  0  0  0  0 
    4.8073    0.9447   -0.4066 C   0  0  0  0  0  0  0  0  0  0  0  0 
    1.3176    0.0858   -0.0548 C   0  0  0  0  0  0  0  0  0  0  0  0 
    2.7234    0.1434   -0.2014 N   0  0  0  0  0  0  0  0  0  0  0  0 
   -2.5496   -0.0753    0.3453 H   0  0  0  0  0  0  0  0  0  0  0  0 
   -1.4966    1.7803   -0.9386 H   0  0  0  0  0  0  0  0  0  0  0  0 
   -1.1074   -1.8271    1.3708 H   0  0  0  0  0  0  0  0  0  0  0  0 
    8.2427   -0.8495   -1.0026 H   0  0  0  0  0  0  0  0  0  0  0  0 
    7.1294   -0.1148   -2.1543 H   0  0  0  0  0  0  0  0  0  0  0  0 
    8.1893    1.5816   -0.5918 H   0  0  0  0  0  0  0  0  0  0  0  0 
    7.4157    0.7704    0.7676 H   0  0  0  0  0  0  0  0  0  0  0  0 
    6.4427   -1.6764    0.3857 H   0  0  0  0  0  0  0  0  0  0  0  0 
    6.0306   -2.1112   -1.2650 H   0  0  0  0  0  0  0  0  0  0  0  0 
    6.0728    2.2543   -1.5466 H   0  0  0  0  0  0  0  0  0  0  0  0 
    5.9913    2.6626    0.1592 H   0  0  0  0  0  0  0  0  0  0  0  0 
    0.9598    1.8584   -1.2273 H   0  0  0  0  0  0  0  0  0  0  0  0 
    1.3537   -1.7009    1.1502 H   0  0  0  0  0  0  0  0  0  0  0  0 
    3.1719   -1.9508   -0.3442 H   0  0  0  0  0  0  0  0  0  0  0  0 
    3.0227    2.2679   -0.1380 H   0  0  0  0  0  0  0  0  0  0  0  0 
  1 16  1  0  0  0  0 
  1  3  2  0  0  0  0 
  2  1  1  0  0  0  0 
  3 18  1  0  0  0  0 
  4 19  1  0  0  0  0 
  4  6  1  0  0  0  0 
  4  5  1  0  0  0  0 
  5 22  1  0  0  0  0 
  6 12  1  0  0  0  0 
  6 23  1  0  0  0  0 
  7 13  1  0  0  0  0 
  7  5  1  0  0  0  0 
  7 26  1  0  0  0  0 
  8  2  2  0  0  0  0 
  8 14  1  0  0  0  0 
  9  3  1  0  0  0  0 
  9 28  1  0  0  0  0 
 10 15  1  0  0  0  0 
 11 15  1  0  0  0  0 
 11 30  1  0  0  0  0 
 12 13  1  0  0  0  0 
 12 10  2  0  0  0  0 
 13 11  2  0  0  0  0 
 14  9  2  0  0  0  0 
 15 14  1  0  0  0  0 
 17  2  1  0  0  0  0 
 20  4  1  0  0  0  0 
 21  5  1  0  0  0  0 
 24  6  1  0  0  0  0 
 25  7  1  0  0  0  0 
 27  8  1  0  0  0  0 
 29 10  1  0  0  0  0 
M  END 
>  <HBA> 
1 
 
>  <HBD> 
0 
 
>  <TPSA> 
4.93 
 
>  <cid> 
43809 
 
>  <dipole> 
0.84 
 
>  <excitation_energy_1> 
4.326 
 
>  <excitation_energy_2> 
4.395 
 
>  <excitation_energy_3> 
4.564 
 
>  <excitation_energy_4> 
4.625 
 
>  <homo_energy> 
-5.385 
 
>  <homo_lumo_gap> 
5.102 
 
>  <logP> 
3.356 
 
>  <lumo_energy> 
-0.283 
 
>  <melting_point> 
68.65 
 
>  <molecular_refractivity> 
63.2 
 
>  <oscillator_strength_1> 
0.0069 
 
>  <oscillator_strength_2> 
0.0014 
 
>  <oscillator_strength_3> 
0.0099 
 
>  <oscillator_strength_4> 
0.4281 
 
>  <open_babel_can_smiles> 
C1CCc2c(C1)cn(c2)c1ccccc1 
 
>  <mulliken_charges> 
30 
1   -0.125817 
2   -0.140329 
3   -0.140296 
4   -0.265203 
5   -0.265597 
6   -0.336025 
7   -0.336249 
8   -0.163458 
9   -0.16373 
10   -0.04086 
11   -0.040806 
12   0.071481 
13   0.071299 
14   0.321931 
15   -0.509174 
16   0.130759 
17   0.134027 
18   0.134033 
19   0.12891 
20   0.13534 
21   0.128999 
22   0.135346 
23   0.142543 
24   0.138819 
25   0.142631 
26   0.138994 
27   0.1424 
28   0.142391 
29   0.143809 
30   0.143833 
 
>  <lowdin_charges> 
30 
1   -0.163942 
2   -0.149112 
3   -0.148493 
4   -0.272913 
5   -0.273775 
6   -0.271655 
7   -0.27137 
8   -0.177147 
9   -0.177849 
10   -0.173376 
11   -0.174122 
12   -0.058299 
13   -0.058133 
14   0.056191 
15   0.021651 
16   0.15723 
17   0.161418 
18   0.16109 
19   0.142811 
20   0.139022 
21   0.143627 
22   0.138936 
23   0.146052 
24   0.149205 
25   0.145553 
26   0.149278 
27   0.166477 
28   0.166744 
29   0.162211 
30   0.16269 
 
$$$$ 
 
