PCCDB-ID:  46271 
public computational chemistry database (PCCDB) project, http://pccdb.org 
 
 36 36  0  0  1  0  0  0  0  0999 V2000 
    3.9108   -0.6609    7.0523 C   0  0  0  0  0  0  0  0  0  0  0  0 
    6.7095    2.5462    2.1543 C   0  0  0  0  0  0  0  0  0  0  0  0 
    4.6059    0.1796    5.9769 C   0  0  0  0  0  0  0  0  0  0  0  0 
    3.8996    0.1110    4.6163 C   0  0  0  0  0  0  0  0  0  0  0  0 
   10.3975    1.6313   -1.3592 C   0  0  0  0  0  0  0  0  0  0  0  0 
    9.2966    0.7971   -1.5666 C   0  0  0  0  0  0  0  0  0  0  0  0 
   10.7215    2.0334   -0.0627 C   0  0  0  0  0  0  0  0  0  0  0  0 
    8.5293    0.3721   -0.4824 C   0  0  0  0  0  0  0  0  0  0  0  0 
    9.9489    1.6123    1.0215 C   0  0  0  0  0  0  0  0  0  0  0  0 
    4.5673    0.9405    3.5142 C   0  0  0  0  0  0  0  0  0  0  0  0 
    6.5893    1.0258    2.0380 C   0  0  1  0  0  0  0  0  0  0  0  0 
    8.8421    0.7801    0.8212 C   0  0  0  0  0  0  0  0  0  0  0  0 
    7.9786    0.3245    1.9801 C   0  0  1  0  0  0  0  0  0  0  0  0 
    5.9177    0.4471    3.2182 N   0  0  0  0  0  0  0  0  0  0  0  0 
    8.6554    0.5265    3.2083 O   0  0  0  0  0  0  0  0  0  0  0  0 
    4.4319   -0.5884    8.0135 H   0  0  0  0  0  0  0  0  0  0  0  0 
    3.8804   -1.7209    6.7705 H   0  0  0  0  0  0  0  0  0  0  0  0 
    2.8759   -0.3317    7.2090 H   0  0  0  0  0  0  0  0  0  0  0  0 
    7.2676    2.9431    1.3020 H   0  0  0  0  0  0  0  0  0  0  0  0 
    7.2410    2.8217    3.0707 H   0  0  0  0  0  0  0  0  0  0  0  0 
    5.7271    3.0280    2.1628 H   0  0  0  0  0  0  0  0  0  0  0  0 
    5.6460   -0.1473    5.8619 H   0  0  0  0  0  0  0  0  0  0  0  0 
    4.6512    1.2289    6.3016 H   0  0  0  0  0  0  0  0  0  0  0  0 
    2.8627    0.4584    4.7237 H   0  0  0  0  0  0  0  0  0  0  0  0 
    3.8313   -0.9388    4.2893 H   0  0  0  0  0  0  0  0  0  0  0  0 
   11.0015    1.9584   -2.2016 H   0  0  0  0  0  0  0  0  0  0  0  0 
    9.0412    0.4694   -2.5710 H   0  0  0  0  0  0  0  0  0  0  0  0 
   11.5823    2.6750    0.1082 H   0  0  0  0  0  0  0  0  0  0  0  0 
    7.6832   -0.2916   -0.6507 H   0  0  0  0  0  0  0  0  0  0  0  0 
   10.2019    1.9108    2.0327 H   0  0  0  0  0  0  0  0  0  0  0  0 
    4.6409    1.9824    3.8452 H   0  0  0  0  0  0  0  0  0  0  0  0 
    3.9238    0.9379    2.6144 H   0  0  0  0  0  0  0  0  0  0  0  0 
    6.0461    0.7876    1.1049 H   0  0  0  0  0  0  0  0  0  0  0  0 
    7.7753   -0.7556    1.8394 H   0  0  0  0  0  0  0  0  0  0  0  0 
    5.8512   -0.5617    3.0695 H   0  0  0  0  0  0  0  0  0  0  0  0 
    7.9405    0.5106    3.8751 H   0  0  0  0  0  0  0  0  0  0  0  0 
  1 18  1  0  0  0  0 
  1 16  1  0  0  0  0 
  2 21  1  0  0  0  0 
  2 20  1  0  0  0  0 
  3 23  1  0  0  0  0 
  3  1  1  0  0  0  0 
  4 24  1  0  0  0  0 
  4  3  1  0  0  0  0 
  5  7  1  0  0  0  0 
  6  5  2  0  0  0  0 
  6  8  1  0  0  0  0 
  7 28  1  0  0  0  0 
  7  9  2  0  0  0  0 
  8 12  2  0  0  0  0 
  9 30  1  0  0  0  0 
 10 31  1  0  0  0  0 
 10  4  1  0  0  0  0 
 11 33  1  6  0  0  0 
 11  2  1  0  0  0  0 
 11 14  1  0  0  0  0 
 12  9  1  0  0  0  0 
 12 13  1  0  0  0  0 
 13 34  1  6  0  0  0 
 13 11  1  0  0  0  0 
 13 15  1  0  0  0  0 
 14 10  1  0  0  0  0 
 15 36  1  0  0  0  0 
 17  1  1  0  0  0  0 
 19  2  1  0  0  0  0 
 22  3  1  0  0  0  0 
 25  4  1  0  0  0  0 
 26  5  1  0  0  0  0 
 27  6  1  0  0  0  0 
 29  8  1  0  0  0  0 
 32 10  1  0  0  0  0 
 35 14  1  0  0  0  0 
M  END 
>  <HBA> 
2 
 
>  <HBD> 
2 
 
>  <TPSA> 
32.26 
 
>  <cid> 
46271 
 
>  <dipole> 
2.61 
 
>  <excitation_energy_1> 
5.268 
 
>  <excitation_energy_2> 
5.543 
 
>  <excitation_energy_3> 
5.749 
 
>  <excitation_energy_4> 
5.799 
 
>  <homo_energy> 
-6.27 
 
>  <homo_lumo_gap> 
6.381 
 
>  <logP> 
2.889 
 
>  <lumo_energy> 
0.112 
 
>  <melting_point> 
48.96 
 
>  <molecular_refractivity> 
64.21 
 
>  <oscillator_strength_1> 
0.0024 
 
>  <oscillator_strength_2> 
0.0267 
 
>  <oscillator_strength_3> 
0.0336 
 
>  <oscillator_strength_4> 
0.0172 
 
>  <open_babel_can_smiles> 
CCCCN[C@H]([C@@H](c1ccccc1)O)C 
 
>  <mulliken_charges> 
36 
1   -0.4426 
2   -0.45615 
3   -0.240255 
4   -0.273924 
5   -0.127525 
6   -0.134043 
7   -0.133609 
8   -0.179892 
9   -0.167637 
10   -0.113214 
11   0.028904 
12   0.126489 
13   0.08616 
14   -0.589431 
15   -0.651949 
16   0.145211 
17   0.140689 
18   0.140755 
19   0.165309 
20   0.155822 
21   0.145068 
22   0.144595 
23   0.131479 
24   0.13596 
25   0.125 
26   0.125627 
27   0.125856 
28   0.127538 
29   0.117339 
30   0.154124 
31   0.149418 
32   0.116071 
33   0.112138 
34   0.109019 
35   0.296556 
36   0.405099 
 
>  <lowdin_charges> 
36 
1   -0.441687 
2   -0.455609 
3   -0.271187 
4   -0.277558 
5   -0.162884 
6   -0.157182 
7   -0.154953 
8   -0.16919 
9   -0.157934 
10   -0.200737 
11   -0.079429 
12   -0.012597 
13   -0.001047 
14   -0.363641 
15   -0.465921 
16   0.150879 
17   0.144405 
18   0.144625 
19   0.165747 
20   0.156777 
21   0.150865 
22   0.144185 
23   0.139103 
24   0.144968 
25   0.134341 
26   0.156764 
27   0.155068 
28   0.156518 
29   0.151351 
30   0.170717 
31   0.144841 
32   0.122997 
33   0.123995 
34   0.122218 
35   0.249783 
36   0.341408 
 
$$$$ 
 
