PCCDB-ID:  69196 
public computational chemistry database (PCCDB) project, http://pccdb.org 
 
 21 21  0  0  0  0  0  0  0  0999 V2000 
    4.0785   -1.9605    3.4053 C   0  0  0  0  0  0  0  0  0  0  0  0 
    5.1923   -1.4325    2.5046 C   0  0  0  0  0  0  0  0  0  0  0  0 
    7.9653    1.0037    0.1984 C   0  0  0  0  0  0  0  0  0  0  0  0 
    7.5859    2.2941   -0.1548 C   0  0  0  0  0  0  0  0  0  0  0  0 
    7.1441    0.2194    1.0163 C   0  0  0  0  0  0  0  0  0  0  0  0 
    6.3688    2.8023    0.3179 C   0  0  0  0  0  0  0  0  0  0  0  0 
    5.9290    0.7157    1.5082 C   0  0  0  0  0  0  0  0  0  0  0  0 
    5.5553    2.0289    1.1336 C   0  0  0  0  0  0  0  0  0  0  0  0 
    5.0898    0.0102    2.3622 N   0  0  0  0  0  0  0  0  0  0  0  0 
    4.3416    2.4640    1.6250 O   0  0  0  0  0  0  0  0  0  0  0  0 
    4.1693   -3.0437    3.5342 H   0  0  0  0  0  0  0  0  0  0  0  0 
    3.0907   -1.7574    2.9730 H   0  0  0  0  0  0  0  0  0  0  0  0 
    4.1219   -1.4892    4.3930 H   0  0  0  0  0  0  0  0  0  0  0  0 
    5.1608   -1.9442    1.5260 H   0  0  0  0  0  0  0  0  0  0  0  0 
    6.1650   -1.6762    2.9517 H   0  0  0  0  0  0  0  0  0  0  0  0 
    8.9026    0.5902   -0.1639 H   0  0  0  0  0  0  0  0  0  0  0  0 
    8.2170    2.9067   -0.7915 H   0  0  0  0  0  0  0  0  0  0  0  0 
    7.4552   -0.7866    1.2775 H   0  0  0  0  0  0  0  0  0  0  0  0 
    6.0495    3.8082    0.0476 H   0  0  0  0  0  0  0  0  0  0  0  0 
    4.1444    0.3727    2.3763 H   0  0  0  0  0  0  0  0  0  0  0  0 
    4.1644    3.3504    1.2759 H   0  0  0  0  0  0  0  0  0  0  0  0 
  1 11  1  0  0  0  0 
  1 13  1  0  0  0  0 
  2 15  1  0  0  0  0 
  2  1  1  0  0  0  0 
  3  5  1  0  0  0  0 
  4  3  2  0  0  0  0 
  4  6  1  0  0  0  0 
  5 18  1  0  0  0  0 
  5  7  2  0  0  0  0 
  6  8  2  0  0  0  0 
  7  9  1  0  0  0  0 
  8  7  1  0  0  0  0 
  8 10  1  0  0  0  0 
  9 20  1  0  0  0  0 
  9  2  1  0  0  0  0 
 12  1  1  0  0  0  0 
 14  2  1  0  0  0  0 
 16  3  1  0  0  0  0 
 17  4  1  0  0  0  0 
 19  6  1  0  0  0  0 
 21 10  1  0  0  0  0 
M  END 
>  <HBA> 
2 
 
>  <HBD> 
2 
 
>  <TPSA> 
32.26 
 
>  <cid> 
69196 
 
>  <dipole> 
1.31 
 
>  <excitation_energy_1> 
4.332 
 
>  <excitation_energy_2> 
4.601 
 
>  <excitation_energy_3> 
4.86 
 
>  <excitation_energy_4> 
4.931 
 
>  <homo_energy> 
-4.901 
 
>  <homo_lumo_gap> 
5.445 
 
>  <logP> 
1.897 
 
>  <lumo_energy> 
0.544 
 
>  <melting_point> 
78.18 
 
>  <molecular_refractivity> 
42.58 
 
>  <oscillator_strength_1> 
0.0007 
 
>  <oscillator_strength_2> 
0.0642 
 
>  <oscillator_strength_3> 
0.0116 
 
>  <oscillator_strength_4> 
0.005 
 
>  <open_babel_can_smiles> 
CCNc1ccccc1O 
 
>  <mulliken_charges> 
21 
1   -0.46962 
2   -0.098783 
3   -0.140241 
4   -0.145039 
5   -0.199138 
6   -0.195568 
7   0.33242 
8   0.294989 
9   -0.663508 
10   -0.669733 
11   0.152838 
12   0.146661 
13   0.162275 
14   0.13315 
15   0.148953 
16   0.118919 
17   0.119106 
18   0.122685 
19   0.110082 
20   0.330445 
21   0.409107 
 
>  <lowdin_charges> 
21 
1   -0.445614 
2   -0.188164 
3   -0.16704 
4   -0.182139 
5   -0.203941 
6   -0.20811 
7   0.035332 
8   0.070077 
9   -0.299312 
10   -0.399008 
11   0.155996 
12   0.148318 
13   0.156661 
14   0.129018 
15   0.144031 
16   0.154189 
17   0.156055 
18   0.156774 
19   0.149113 
20   0.279193 
21   0.358571 
 
$$$$ 
 
