PCCDB-ID:  41192 
public computational chemistry database (PCCDB) project, http://pccdb.org 
 
 29 30  0  0  0  0  0  0  0  0999 V2000 
    5.6218   -0.3806   -2.9658 C   0  0  0  0  0  0  0  0  0  0  0  0 
    4.2866   -1.0645   -2.7195 C   0  0  0  0  0  0  0  0  0  0  0  0 
    4.8052    1.4934    3.8749 C   0  0  0  0  0  0  0  0  0  0  0  0 
    6.2563    1.7242    3.6259 C   0  0  0  0  0  0  0  0  0  0  0  0 
    6.7820   -2.0814    2.4406 C   0  0  0  0  0  0  0  0  0  0  0  0 
    5.4321   -2.5794    2.0842 C   0  0  0  0  0  0  0  0  0  0  0  0 
    3.4007    0.3408   -0.9922 C   0  0  0  0  0  0  0  0  0  0  0  0 
    3.3321    0.7992    0.2119 N   0  0  0  0  0  0  0  0  0  0  0  0 
    5.3354    1.4905    2.5109 N   0  0  0  0  0  0  0  0  0  0  0  0 
    5.5988   -1.2145    2.6141 N   0  0  0  0  0  0  0  0  0  0  0  0 
    2.9570    1.1366   -1.9859 O   0  0  0  0  0  0  0  0  0  0  0  0 
    6.3876    0.2161    0.4397 O   0  0  0  0  0  0  0  0  0  0  0  0 
    3.8215   -0.8591   -1.3556 O   0  0  0  0  0  0  0  0  0  0  0  0 
    3.8474   -0.1710    1.1508 O   0  0  0  0  0  0  0  0  0  0  0  0 
    5.4079    0.1097    1.5538 P   0  0  0  0  0  0  0  0  0  0  0  0 
    6.0194   -0.6952   -3.9378 H   0  0  0  0  0  0  0  0  0  0  0  0 
    6.3361   -0.6395   -2.1799 H   0  0  0  0  0  0  0  0  0  0  0  0 
    5.5097    0.7074   -2.9781 H   0  0  0  0  0  0  0  0  0  0  0  0 
    4.3732   -2.1511   -2.7852 H   0  0  0  0  0  0  0  0  0  0  0  0 
    3.5137   -0.7304   -3.4166 H   0  0  0  0  0  0  0  0  0  0  0  0 
    4.1511    2.3323    4.1014 H   0  0  0  0  0  0  0  0  0  0  0  0 
    4.5190    0.5387    4.3105 H   0  0  0  0  0  0  0  0  0  0  0  0 
    6.9425    0.9274    3.9085 H   0  0  0  0  0  0  0  0  0  0  0  0 
    6.6717    2.7281    3.6721 H   0  0  0  0  0  0  0  0  0  0  0  0 
    7.4611   -1.8351    1.6273 H   0  0  0  0  0  0  0  0  0  0  0  0 
    7.2508   -2.3939    3.3710 H   0  0  0  0  0  0  0  0  0  0  0  0 
    4.9025   -3.2564    2.7506 H   0  0  0  0  0  0  0  0  0  0  0  0 
    5.1888   -2.6875    1.0295 H   0  0  0  0  0  0  0  0  0  0  0  0 
    2.7123    1.9821   -1.5671 H   0  0  0  0  0  0  0  0  0  0  0  0 
  1  2  1  0  0  0  0 
  1 17  1  0  0  0  0 
  2 13  1  0  0  0  0 
  3 21  1  0  0  0  0 
  3 22  1  0  0  0  0 
  4 24  1  0  0  0  0 
  4  3  1  0  0  0  0 
  4 23  1  0  0  0  0 
  5 10  1  0  0  0  0 
  5 26  1  0  0  0  0 
  6  5  1  0  0  0  0 
  6 10  1  0  0  0  0 
  6 27  1  0  0  0  0 
  7  8  2  0  0  0  0 
  8 14  1  0  0  0  0 
  9  4  1  0  0  0  0 
  9  3  1  0  0  0  0 
 11 29  1  0  0  0  0 
 11  7  1  0  0  0  0 
 12 15  2  0  0  0  0 
 13  7  1  0  0  0  0 
 14 15  1  0  0  0  0 
 15  9  1  0  0  0  0 
 15 10  1  0  0  0  0 
 16  1  1  0  0  0  0 
 18  1  1  0  0  0  0 
 19  2  1  0  0  0  0 
 20  2  1  0  0  0  0 
 25  5  1  0  0  0  0 
 28  6  1  0  0  0  0 
M  END 
>  <HBA> 
7 
 
>  <HBD> 
1 
 
>  <TPSA> 
80.46 
 
>  <cid> 
41192 
 
>  <dipole> 
1.23 
 
>  <excitation_energy_1> 
5.974 
 
>  <excitation_energy_2> 
6.323 
 
>  <excitation_energy_3> 
6.443 
 
>  <excitation_energy_4> 
6.467 
 
>  <homo_energy> 
-6.612 
 
>  <homo_lumo_gap> 
7.581 
 
>  <logP> 
0.67 
 
>  <lumo_energy> 
0.969 
 
>  <melting_point> 
56.04 
 
>  <molecular_refractivity> 
59.38 
 
>  <oscillator_strength_1> 
0.0012 
 
>  <oscillator_strength_2> 
0.0025 
 
>  <oscillator_strength_3> 
0.0104 
 
>  <oscillator_strength_4> 
0.014 
 
>  <open_babel_can_smiles> 
CCO/C(=N\OP(=O)(N1CC1)N1CC1)/O 
 
>  <mulliken_charges> 
29 
1   -0.470747 
2   -0.048245 
3   -0.189066 
4   -0.201469 
5   -0.200547 
6   -0.18802 
7   0.80652 
8   -0.312693 
9   -0.44881 
10   -0.517761 
11   -0.596695 
12   -0.564831 
13   -0.453746 
14   -0.467683 
15   1.171642 
16   0.145489 
17   0.201995 
18   0.169871 
19   0.16121 
20   0.170224 
21   0.167877 
22   0.183518 
23   0.16882 
24   0.169489 
25   0.192913 
26   0.162811 
27   0.167364 
28   0.185896 
29   0.434674 
 
>  <lowdin_charges> 
29 
1   -0.457733 
2   -0.115845 
3   -0.217982 
4   -0.218349 
5   -0.225762 
6   -0.21194 
7   0.19602 
8   -0.154105 
9   -0.333864 
10   -0.37031 
11   -0.349382 
12   -0.600667 
13   -0.165138 
14   -0.334929 
15   1.038643 
16   0.157351 
17   0.179719 
18   0.161024 
19   0.155528 
20   0.156209 
21   0.164791 
22   0.169339 
23   0.162794 
24   0.164184 
25   0.175752 
26   0.160812 
27   0.164981 
28   0.169069 
29   0.379788 
 
$$$$ 
 
