PCCDB-ID:  33409 
public computational chemistry database (PCCDB) project, http://pccdb.org 
 
 34 34  0  0  1  0  0  0  0  0999 V2000 
    1.1199    0.6783    2.4699 C   0  0  0  0  0  0  0  0  0  0  0  0 
    6.3031   -5.3818    0.4571 C   0  0  0  0  0  0  0  0  0  0  0  0 
    9.8205    2.4713    1.3384 C   0  0  0  0  0  0  0  0  0  0  0  0 
    2.6117    0.3400    2.5355 C   0  0  0  0  0  0  0  0  0  0  0  0 
    5.9538   -4.4365    1.6115 C   0  0  0  0  0  0  0  0  0  0  0  0 
    9.0922    1.1300    1.3877 C   0  0  0  0  0  0  0  0  0  0  0  0 
    3.1545   -0.1728    1.1845 C   0  0  0  0  0  0  0  0  0  0  0  0 
    4.6135   -0.5480    1.2504 C   0  0  2  0  0  0  0  0  0  0  0  0 
    6.3155   -2.1049    1.4656 C   0  0  0  0  0  0  0  0  0  0  0  0 
    6.8943    0.3063    1.3213 C   0  0  0  0  0  0  0  0  0  0  0  0 
    6.8221   -3.2691    1.5890 N   0  0  0  0  0  0  0  0  0  0  0  0 
    7.6529    1.3329    1.2920 N   0  0  0  0  0  0  0  0  0  0  0  0 
    4.9581   -1.7915    1.3608 N   0  0  0  0  0  0  0  0  0  0  0  0 
    5.5077    0.4901    1.2261 N   0  0  0  0  0  0  0  0  0  0  0  0 
    7.2292   -1.0232    1.4344 N   0  0  0  0  0  0  0  0  0  0  0  0 
    0.7565    1.0396    3.4380 H   0  0  0  0  0  0  0  0  0  0  0  0 
    0.5265   -0.2021    2.1970 H   0  0  0  0  0  0  0  0  0  0  0  0 
    0.9198    1.4587    1.7254 H   0  0  0  0  0  0  0  0  0  0  0  0 
    5.7068   -6.3002    0.5152 H   0  0  0  0  0  0  0  0  0  0  0  0 
    7.3639   -5.6527    0.4859 H   0  0  0  0  0  0  0  0  0  0  0  0 
    6.1027   -4.9045   -0.5089 H   0  0  0  0  0  0  0  0  0  0  0  0 
   10.9053    2.3311    1.4070 H   0  0  0  0  0  0  0  0  0  0  0  0 
    9.4994    3.1112    2.1669 H   0  0  0  0  0  0  0  0  0  0  0  0 
    9.5956    2.9942    0.4029 H   0  0  0  0  0  0  0  0  0  0  0  0 
    2.7893   -0.4285    3.2976 H   0  0  0  0  0  0  0  0  0  0  0  0 
    3.1791    1.2262    2.8498 H   0  0  0  0  0  0  0  0  0  0  0  0 
    6.1300   -4.9599    2.5621 H   0  0  0  0  0  0  0  0  0  0  0  0 
    4.8900   -4.1704    1.5737 H   0  0  0  0  0  0  0  0  0  0  0  0 
    9.3567    0.6088    2.3250 H   0  0  0  0  0  0  0  0  0  0  0  0 
    9.4560    0.4897    0.5646 H   0  0  0  0  0  0  0  0  0  0  0  0 
    3.0038    0.5936    0.4113 H   0  0  0  0  0  0  0  0  0  0  0  0 
    2.6055   -1.0673    0.8786 H   0  0  0  0  0  0  0  0  0  0  0  0 
    5.2090    1.4521    1.1388 H   0  0  0  0  0  0  0  0  0  0  0  0 
    8.2025   -1.2842    1.5122 H   0  0  0  0  0  0  0  0  0  0  0  0 
  1  4  1  0  0  0  0 
  1 16  1  0  0  0  0 
  2 20  1  0  0  0  0 
  2 19  1  0  0  0  0 
  2  5  1  0  0  0  0 
  3  6  1  0  0  0  0 
  3 22  1  0  0  0  0 
  3 23  1  0  0  0  0 
  4 26  1  0  0  0  0 
  4 25  1  0  0  0  0 
  5 27  1  0  0  0  0 
  6 29  1  0  0  0  0 
  7  4  1  0  0  0  0 
  8  7  1  1  0  0  0 
  8 13  1  0  0  0  0 
  9 11  1  0  0  0  0 
 10 15  1  0  0  0  0 
 11  5  1  0  0  0  0 
 12 10  2  0  0  0  0 
 12  6  1  0  0  0  0 
 13  9  2  0  0  0  0 
 14  8  1  0  0  0  0 
 14 10  1  0  0  0  0 
 15  9  1  0  0  0  0 
 15 34  1  0  0  0  0 
 17  1  1  0  0  0  0 
 18  1  1  0  0  0  0 
 21  2  1  0  0  0  0 
 24  3  1  0  0  0  0 
 28  5  1  0  0  0  0 
 30  6  1  0  0  0  0 
 31  7  1  0  0  0  0 
 32  7  1  0  0  0  0 
 33 14  1  0  0  0  0 
M  RAD  2   8   2  11   2 
M  END 
>  <HBA> 
5 
 
>  <HBD> 
2 
 
>  <TPSA> 
62.73 
 
>  <cid> 
33409 
 
>  <dipole> 
2.89 
 
>  <excitation_energy_1> 
4.706 
 
>  <excitation_energy_2> 
4.787 
 
>  <excitation_energy_3> 
4.844 
 
>  <excitation_energy_4> 
5.474 
 
>  <homo_energy> 
-5.989 
 
>  <homo_lumo_gap> 
5.342 
 
>  <logP> 
1.834 
 
>  <lumo_energy> 
-0.648 
 
>  <melting_point> 
122.13 
 
>  <molecular_refractivity> 
62.63 
 
>  <oscillator_strength_1> 
0.0505 
 
>  <oscillator_strength_2> 
0.0045 
 
>  <oscillator_strength_3> 
0.1328 
 
>  <oscillator_strength_4> 
0.0015 
 
>  <open_babel_can_smiles> 
CCC[C]1N/C(=N/CC)/NC(=N1)[N]CC 
 
>  <mulliken_charges> 
34 
1   -0.442444 
2   -0.432943 
3   -0.433957 
4   -0.257936 
5   -0.138428 
6   -0.150064 
7   -0.339061 
8   0.523568 
9   0.657267 
10   0.766197 
11   -0.501911 
12   -0.51209 
13   -0.521962 
14   -0.680951 
15   -0.716971 
16   0.153381 
17   0.152531 
18   0.145236 
19   0.132712 
20   0.149153 
21   0.14261 
22   0.135098 
23   0.151565 
24   0.151832 
25   0.161256 
26   0.137687 
27   0.133612 
28   0.149415 
29   0.130453 
30   0.130976 
31   0.147202 
32   0.180552 
33   0.347226 
34   0.349188 
 
>  <lowdin_charges> 
34 
1   -0.444417 
2   -0.444261 
3   -0.441907 
4   -0.269592 
5   -0.195409 
6   -0.200808 
7   -0.283096 
8   0.121721 
9   0.11594 
10   0.134714 
11   -0.238578 
12   -0.27516 
13   -0.227206 
14   -0.22465 
15   -0.251408 
16   0.156007 
17   0.152867 
18   0.149127 
19   0.14596 
20   0.149553 
21   0.147175 
22   0.145161 
23   0.154065 
24   0.153556 
25   0.155409 
26   0.14208 
27   0.140426 
28   0.139398 
29   0.130555 
30   0.131641 
31   0.15291 
32   0.174079 
33   0.302613 
34   0.301534 
 
$$$$ 
 
