PCCDB-ID:  7423 
public computational chemistry database (PCCDB) project, http://pccdb.org 
 
 16 16  0  0  0  0  0  0  0  0999 V2000 
   -0.7595    1.1644   -0.0754 C   0  0  0  0  0  0  0  0  0  0  0  0 
   -1.3852   -0.0778   -0.0078 C   0  0  0  0  0  0  0  0  0  0  0  0 
    0.6305    1.2686   -0.1127 C   0  0  0  0  0  0  0  0  0  0  0  0 
    0.7692   -1.1724   -0.0113 C   0  0  0  0  0  0  0  0  0  0  0  0 
   -0.6302   -1.2664    0.0263 C   0  0  0  0  0  0  0  0  0  0  0  0 
    1.3618    0.0839   -0.0782 C   0  0  0  0  0  0  0  0  0  0  0  0 
   -1.2536   -2.5037    0.1539 N   0  0  0  0  0  0  0  0  0  0  0  0 
    2.8335    0.1572   -0.1205 N   0  0  0  0  0  0  0  0  0  0  0  0 
    3.3499    1.2729   -0.1737 O   0  0  0  0  0  0  0  0  0  0  0  0 
    3.4630   -0.9011   -0.1013 O   0  0  0  0  0  0  0  0  0  0  0  0 
   -1.3657    2.0652   -0.1020 H   0  0  0  0  0  0  0  0  0  0  0  0 
   -2.4705   -0.1365    0.0273 H   0  0  0  0  0  0  0  0  0  0  0  0 
    1.1403    2.2211   -0.1670 H   0  0  0  0  0  0  0  0  0  0  0  0 
    1.3965   -2.0555    0.0172 H   0  0  0  0  0  0  0  0  0  0  0  0 
   -2.2112   -2.5491   -0.1695 H   0  0  0  0  0  0  0  0  0  0  0  0 
   -0.7105   -3.3025   -0.1473 H   0  0  0  0  0  0  0  0  0  0  0  0 
  1  2  2  0  0  0  0 
  2  5  1  0  0  0  0 
  2 12  1  0  0  0  0 
  3  6  2  0  0  0  0 
  3  1  1  0  0  0  0 
  4 14  1  0  0  0  0 
  4  5  2  0  0  0  0 
  5  7  1  0  0  0  0 
  6  4  1  0  0  0  0 
  8 10  2  0  0  0  0 
  8  6  1  0  0  0  0 
  9  8  2  0  0  0  0 
 11  1  1  0  0  0  0 
 13  3  1  0  0  0  0 
 15  7  1  0  0  0  0 
 16  7  1  0  0  0  0 
M  END 
>  <HBA> 
1 
 
>  <HBD> 
1 
 
>  <TPSA> 
71.84 
 
>  <cid> 
7423 
 
>  <dipole> 
5.66 
 
>  <excitation_energy_1> 
3.152 
 
>  <excitation_energy_2> 
3.737 
 
>  <excitation_energy_3> 
4.273 
 
>  <excitation_energy_4> 
4.532 
 
>  <homo_energy> 
-6.136 
 
>  <homo_lumo_gap> 
3.891 
 
>  <logP> 
2.281 
 
>  <lumo_energy> 
-2.245 
 
>  <melting_point> 
92.27 
 
>  <molecular_refractivity> 
39.67 
 
>  <oscillator_strength_1> 
0.0287 
 
>  <oscillator_strength_2> 
0.0 
 
>  <oscillator_strength_3> 
0.0003 
 
>  <oscillator_strength_4> 
0.1147 
 
>  <open_babel_can_smiles> 
Nc1cccc(c1)N(=O)=O 
 
>  <mulliken_charges> 
16 
1   -0.145207 
2   -0.153257 
3   -0.162381 
4   -0.20842 
5   0.319286 
6   0.271355 
7   -0.790788 
8   0.378291 
9   -0.393956 
10   -0.398162 
11   0.145406 
12   0.132385 
13   0.175342 
14   0.171301 
15   0.327721 
16   0.331083 
 
>  <lowdin_charges> 
16 
1   -0.139085 
2   -0.175719 
3   -0.170326 
4   -0.186966 
5   0.067074 
6   0.01449 
7   -0.479273 
8   0.30971 
9   -0.246309 
10   -0.25149 
11   0.167051 
12   0.158523 
13   0.185642 
14   0.183378 
15   0.279892 
16   0.283409 
 
$$$$ 
 
