PCCDB-ID:  11421 
public computational chemistry database (PCCDB) project, http://pccdb.org 
 
 12 12  0  0  0  0  0  0  0  0999 V2000 
    1.0694    0.8877    0.0003 C   0  0  0  0  0  0  0  0  0  0  0  0 
   -0.3187    1.3500   -0.0019 C   0  0  0  0  0  0  0  0  0  0  0  0 
    1.3939   -0.4229    0.0009 C   0  0  0  0  0  0  0  0  0  0  0  0 
   -1.3641    0.4956   -0.0014 C   0  0  0  0  0  0  0  0  0  0  0  0 
    0.3410   -1.4548   -0.0022 C   0  0  0  0  0  0  0  0  0  0  0  0 
   -1.1400   -0.9615    0.0031 C   0  0  0  0  0  0  0  0  0  0  0  0 
    0.5835   -2.6486   -0.0099 O   0  0  0  0  0  0  0  0  0  0  0  0 
   -2.0500   -1.7714    0.0115 O   0  0  0  0  0  0  0  0  0  0  0  0 
    1.8514    1.6431    0.0007 H   0  0  0  0  0  0  0  0  0  0  0  0 
   -0.4915    2.4234   -0.0037 H   0  0  0  0  0  0  0  0  0  0  0  0 
    2.4227   -0.7706    0.0001 H   0  0  0  0  0  0  0  0  0  0  0  0 
   -2.3960    0.8340   -0.0010 H   0  0  0  0  0  0  0  0  0  0  0  0 
  1  9  1  0  0  0  0 
  1  3  2  0  0  0  0 
  2  4  2  0  0  0  0 
  2  1  1  0  0  0  0 
  4 12  1  0  0  0  0 
  4  6  1  0  0  0  0 
  5  3  1  0  0  0  0 
  5  6  1  0  0  0  0 
  6  8  2  0  0  0  0 
  7  5  2  0  0  0  0 
 10  2  1  0  0  0  0 
 11  3  1  0  0  0  0 
M  END 
>  <HBA> 
2 
 
>  <HBD> 
0 
 
>  <TPSA> 
34.14 
 
>  <cid> 
11421 
 
>  <dipole> 
5.34 
 
>  <excitation_energy_1> 
1.817 
 
>  <excitation_energy_2> 
3.074 
 
>  <excitation_energy_3> 
3.08 
 
>  <excitation_energy_4> 
5.254 
 
>  <homo_energy> 
-6.787 
 
>  <homo_lumo_gap> 
3.2 
 
>  <logP> 
0.251 
 
>  <lumo_energy> 
-3.586 
 
>  <melting_point> 
58.38 
 
>  <molecular_refractivity> 
28.29 
 
>  <oscillator_strength_1> 
0.0 
 
>  <oscillator_strength_2> 
0.0 
 
>  <oscillator_strength_3> 
0.0483 
 
>  <oscillator_strength_4> 
0.0002 
 
>  <open_babel_can_smiles> 
O=C1C=CC=CC1=O 
 
>  <mulliken_charges> 
12 
1   -0.120778 
2   -0.120959 
3   -0.166727 
4   -0.166841 
5   0.380619 
6   0.380931 
7   -0.419604 
8   -0.419608 
9   0.160543 
10   0.160567 
11   0.165927 
12   0.165931 
 
>  <lowdin_charges> 
12 
1   -0.125329 
2   -0.121936 
3   -0.172603 
4   -0.174176 
5   0.118609 
6   0.124582 
7   -0.173204 
8   -0.174918 
9   0.172964 
10   0.170142 
11   0.178 
12   0.17787 
 
$$$$ 
 
