PCCDB-ID:  51168 
public computational chemistry database (PCCDB) project, http://pccdb.org 
 
 29 30  0  0  0  0  0  0  0  0999 V2000 
    2.1869    0.2406   -2.2646 C   0  0  0  0  0  0  0  0  0  0  0  0 
    3.3211    6.1989   -0.1336 C   0  0  0  0  0  0  0  0  0  0  0  0 
    4.3310   -1.2448    0.5140 C   0  0  0  0  0  0  0  0  0  0  0  0 
    4.4153   -0.1977    1.4309 C   0  0  0  0  0  0  0  0  0  0  0  0 
    3.6026   -1.0734   -0.6619 C   0  0  0  0  0  0  0  0  0  0  0  0 
    3.7653    1.0027    1.1579 C   0  0  0  0  0  0  0  0  0  0  0  0 
    0.9596    2.5783   -0.5010 C   0  0  0  0  0  0  0  0  0  0  0  0 
    0.3523    3.8132   -0.6490 C   0  0  0  0  0  0  0  0  0  0  0  0 
    3.0758    3.6831   -0.1018 C   0  0  0  0  0  0  0  0  0  0  0  0 
    2.9322    0.1223   -0.9519 C   0  0  0  0  0  0  0  0  0  0  0  0 
    2.4906    4.9429   -0.2516 C   0  0  0  0  0  0  0  0  0  0  0  0 
    2.3399    2.4926   -0.2248 C   0  0  0  0  0  0  0  0  0  0  0  0 
    3.0129    1.1806   -0.0163 C   0  0  0  0  0  0  0  0  0  0  0  0 
    1.1083    4.9890   -0.5298 C   0  0  0  0  0  0  0  0  0  0  0  0 
    0.5311    6.2930   -0.6714 N   0  0  0  0  0  0  0  0  0  0  0  0 
   -0.6665    6.3093   -0.9335 O   0  0  0  0  0  0  0  0  0  0  0  0 
    2.6017   -0.4542   -3.0018 H   0  0  0  0  0  0  0  0  0  0  0  0 
    2.2427    1.2506   -2.6808 H   0  0  0  0  0  0  0  0  0  0  0  0 
    1.1226   -0.0047   -2.1567 H   0  0  0  0  0  0  0  0  0  0  0  0 
    4.3382    5.9567    0.1888 H   0  0  0  0  0  0  0  0  0  0  0  0 
    2.8855    6.9040    0.5799 H   0  0  0  0  0  0  0  0  0  0  0  0 
    3.3842    6.7247   -1.0929 H   0  0  0  0  0  0  0  0  0  0  0  0 
    4.8348   -2.1880    0.7074 H   0  0  0  0  0  0  0  0  0  0  0  0 
    4.9803   -0.3130    2.3516 H   0  0  0  0  0  0  0  0  0  0  0  0 
    3.5568   -1.8849   -1.3848 H   0  0  0  0  0  0  0  0  0  0  0  0 
    3.8159    1.8181    1.8743 H   0  0  0  0  0  0  0  0  0  0  0  0 
    0.3687    1.6704   -0.5698 H   0  0  0  0  0  0  0  0  0  0  0  0 
   -0.7100    3.9088   -0.8490 H   0  0  0  0  0  0  0  0  0  0  0  0 
    4.1418    3.6187    0.1002 H   0  0  0  0  0  0  0  0  0  0  0  0 
  1 19  1  0  0  0  0 
  1 10  1  0  0  0  0 
  2 20  1  0  0  0  0 
  2 21  1  0  0  0  0 
  3 23  1  0  0  0  0 
  3  4  2  0  0  0  0 
  4 24  1  0  0  0  0 
  5  3  1  0  0  0  0 
  6  4  1  0  0  0  0 
  6 26  1  0  0  0  0 
  7 12  2  0  0  0  0 
  8 14  2  0  0  0  0 
  8  7  1  0  0  0  0 
  9 29  1  0  0  0  0 
 10  5  2  0  0  0  0 
 10 13  1  0  0  0  0 
 11  2  1  0  0  0  0 
 11  9  2  0  0  0  0 
 12  9  1  0  0  0  0 
 12 13  1  0  0  0  0 
 13  6  2  0  0  0  0 
 14 11  1  0  0  0  0 
 15 14  1  0  0  0  0 
 16 15  2  0  0  0  0 
 17  1  1  0  0  0  0 
 18  1  1  0  0  0  0 
 22  2  1  0  0  0  0 
 25  5  1  0  0  0  0 
 27  7  1  0  0  0  0 
 28  8  1  0  0  0  0 
M  END 
>  <HBA> 
2 
 
>  <HBD> 
0 
 
>  <TPSA> 
29.43 
 
>  <cid> 
51168 
 
>  <dipole> 
4.13 
 
>  <excitation_energy_1> 
1.436 
 
>  <excitation_energy_2> 
3.433 
 
>  <excitation_energy_3> 
3.632 
 
>  <excitation_energy_4> 
3.685 
 
>  <homo_energy> 
-5.75 
 
>  <homo_lumo_gap> 
3.127 
 
>  <logP> 
4.368 
 
>  <lumo_energy> 
-2.623 
 
>  <melting_point> 
78.36 
 
>  <molecular_refractivity> 
67.27 
 
>  <oscillator_strength_1> 
0.0002 
 
>  <oscillator_strength_2> 
0.2017 
 
>  <oscillator_strength_3> 
0.0915 
 
>  <oscillator_strength_4> 
0.021 
 
>  <open_babel_can_smiles> 
O=Nc1ccc(cc1C)c1ccccc1C 
 
>  <mulliken_charges> 
29 
1   -0.535635 
2   -0.519015 
3   -0.117857 
4   -0.13691 
5   -0.189768 
6   -0.163558 
7   -0.180869 
8   -0.125742 
9   -0.247404 
10   0.147783 
11   0.172756 
12   0.093517 
13   0.014388 
14   0.166612 
15   -0.065214 
16   -0.297928 
17   0.158795 
18   0.170349 
19   0.164898 
20   0.152332 
21   0.18271 
22   0.178862 
23   0.133136 
24   0.13358 
25   0.127243 
26   0.136955 
27   0.143984 
28   0.163436 
29   0.138565 
 
>  <lowdin_charges> 
29 
1   -0.444744 
2   -0.44153 
3   -0.150204 
4   -0.158868 
5   -0.164935 
6   -0.156536 
7   -0.16061 
8   -0.128854 
9   -0.172694 
10   0.002397 
11   0.027271 
12   0.026187 
13   -0.018739 
14   -0.036626 
15   0.037242 
16   -0.187715 
17   0.160706 
18   0.164883 
19   0.159117 
20   0.155373 
21   0.175402 
22   0.172286 
23   0.159771 
24   0.159964 
25   0.15737 
26   0.162014 
27   0.165396 
28   0.175538 
29   0.161138 
 
$$$$ 
 
