PCCDB-ID:  35198 
public computational chemistry database (PCCDB) project, http://pccdb.org 
 
 24 24  0  0  0  0  0  0  0  0999 V2000 
    1.4141    0.6514   -0.9684 C   0  0  0  0  0  0  0  0  0  0  0  0 
    0.9295   -5.1598   -0.7813 C   0  0  0  0  0  0  0  0  0  0  0  0 
    5.0808   -2.6497   -3.4064 C   0  0  0  0  0  0  0  0  0  0  0  0 
    2.6242    0.0827   -0.2033 C   0  0  0  0  0  0  0  0  0  0  0  0 
    2.2429   -4.7766   -0.0736 C   0  0  0  0  0  0  0  0  0  0  0  0 
    4.1498   -2.5358   -2.2319 C   0  0  0  0  0  0  0  0  0  0  0  0 
    3.0171   -1.2724   -0.7296 C   0  0  0  0  0  0  0  0  0  0  0  0 
    2.8425   -3.5311   -0.6715 C   0  0  0  0  0  0  0  0  0  0  0  0 
    3.8567   -1.3102   -1.7777 N   0  0  0  0  0  0  0  0  0  0  0  0 
    3.6717   -3.6780   -1.7133 N   0  0  0  0  0  0  0  0  0  0  0  0 
    2.4801   -2.3507   -0.1431 N   0  0  0  0  0  0  0  0  0  0  0  0 
    1.1400    1.6352   -0.5732 H   0  0  0  0  0  0  0  0  0  0  0  0 
    0.5462   -0.0098   -0.8712 H   0  0  0  0  0  0  0  0  0  0  0  0 
    1.6456    0.7619   -2.0331 H   0  0  0  0  0  0  0  0  0  0  0  0 
    0.5049   -6.0657   -0.3361 H   0  0  0  0  0  0  0  0  0  0  0  0 
    1.1037   -5.3506   -1.8456 H   0  0  0  0  0  0  0  0  0  0  0  0 
    0.1907   -4.3561   -0.6916 H   0  0  0  0  0  0  0  0  0  0  0  0 
    5.4551   -1.6658   -3.6938 H   0  0  0  0  0  0  0  0  0  0  0  0 
    4.5567   -3.1028   -4.2560 H   0  0  0  0  0  0  0  0  0  0  0  0 
    5.9185   -3.3111   -3.1607 H   0  0  0  0  0  0  0  0  0  0  0  0 
    2.3802   -0.0132    0.8591 H   0  0  0  0  0  0  0  0  0  0  0  0 
    3.4779    0.7594   -0.3117 H   0  0  0  0  0  0  0  0  0  0  0  0 
    2.9656   -5.5929   -0.1704 H   0  0  0  0  0  0  0  0  0  0  0  0 
    2.0517   -4.5960    0.9888 H   0  0  0  0  0  0  0  0  0  0  0  0 
  1 13  1  0  0  0  0 
  1 12  1  0  0  0  0 
  1  4  1  0  0  0  0 
  2 17  1  0  0  0  0 
  2 15  1  0  0  0  0 
  2  5  1  0  0  0  0 
  3 20  1  0  0  0  0 
  3  6  1  0  0  0  0 
  4 21  1  0  0  0  0 
  5 24  1  0  0  0  0 
  6  9  2  0  0  0  0 
  6 10  1  0  0  0  0 
  7  4  1  0  0  0  0 
  7 11  1  0  0  0  0 
  8 11  1  0  0  0  0 
  8  5  1  0  0  0  0 
  9  7  2  0  0  0  0 
 10  8  2  0  0  0  0 
 14  1  1  0  0  0  0 
 16  2  1  0  0  0  0 
 18  3  1  0  0  0  0 
 19  3  1  0  0  0  0 
 22  4  1  0  0  0  0 
 23  5  1  0  0  0  0 
M  RAD  1  11   2 
M  END 
>  <HBA> 
3 
 
>  <HBD> 
0 
 
>  <TPSA> 
38.67 
 
>  <cid> 
35198 
 
>  <dipole> 
0.31 
 
>  <excitation_energy_1> 
4.573 
 
>  <excitation_energy_2> 
4.652 
 
>  <excitation_energy_3> 
4.702 
 
>  <excitation_energy_4> 
4.739 
 
>  <homo_energy> 
-6.969 
 
>  <homo_lumo_gap> 
5.97 
 
>  <logP> 
1.305 
 
>  <lumo_energy> 
-0.999 
 
>  <melting_point> 
62.02 
 
>  <molecular_refractivity> 
44.34 
 
>  <oscillator_strength_1> 
0.0 
 
>  <oscillator_strength_2> 
0.0056 
 
>  <oscillator_strength_3> 
0.0002 
 
>  <oscillator_strength_4> 
0.0074 
 
>  <open_babel_can_smiles> 
CCC1=NC(=[N]=C([N]1)CC)C 
 
>  <mulliken_charges> 
24 
1   -0.451644 
2   -0.451509 
3   -0.504749 
4   -0.303088 
5   -0.303173 
6   0.425335 
7   0.421784 
8   0.419496 
9   -0.455281 
10   -0.453164 
11   -0.456767 
12   0.152527 
13   0.158314 
14   0.161252 
15   0.152502 
16   0.16008 
17   0.159126 
18   0.17495 
19   0.176674 
20   0.177116 
21   0.160087 
22   0.160152 
23   0.159903 
24   0.160077 
 
>  <lowdin_charges> 
24 
1   -0.435298 
2   -0.436251 
3   -0.449589 
4   -0.276411 
5   -0.276754 
6   0.118905 
7   0.117012 
8   0.116684 
9   -0.191032 
10   -0.190905 
11   -0.190311 
12   0.154568 
13   0.155124 
14   0.15467 
15   0.15536 
16   0.154099 
17   0.155717 
18   0.16963 
19   0.175354 
20   0.175048 
21   0.159864 
22   0.162348 
23   0.162197 
24   0.159972 
 
$$$$ 
 
