PCCDB-ID:  44984 
public computational chemistry database (PCCDB) project, http://pccdb.org 
 
 27 26  0  0  1  0  0  0  0  0999 V2000 
    1.8955    0.7850    4.3465 C   0  0  0  0  0  0  0  0  0  0  0  0 
    8.8873    4.0595    3.3834 C   0  0  0  0  0  0  0  0  0  0  0  0 
    7.3576    1.6770   -0.1204 C   0  0  0  0  0  0  0  0  0  0  0  0 
    2.8020    1.6614    3.9145 C   0  0  0  0  0  0  0  0  0  0  0  0 
    8.6768    2.7688    2.6099 C   0  0  0  0  0  0  0  0  0  0  0  0 
    3.5033    1.5833    2.5862 C   0  0  0  0  0  0  0  0  0  0  0  0 
    5.3891    0.1190    3.3385 C   0  0  0  0  0  0  0  0  0  0  0  0 
    6.9875    1.6232    1.3522 C   0  0  1  0  0  0  0  0  0  0  0  0 
    5.0290    1.4183    2.7193 C   0  0  1  0  0  0  0  0  0  0  0  0 
    5.7035   -0.8995    3.7983 N   0  0  0  0  0  0  0  0  0  0  0  0 
    7.3696    2.8007    2.0414 O   0  0  0  0  0  0  0  0  0  0  0  0 
    5.5801    1.5186    1.4121 O   0  0  0  0  0  0  0  0  0  0  0  0 
    1.4145    0.8920    5.3147 H   0  0  0  0  0  0  0  0  0  0  0  0 
    1.5988   -0.0735    3.7478 H   0  0  0  0  0  0  0  0  0  0  0  0 
    9.8867    4.0752    3.8315 H   0  0  0  0  0  0  0  0  0  0  0  0 
    8.1468    4.1549    4.1843 H   0  0  0  0  0  0  0  0  0  0  0  0 
    8.7897    4.9250    2.7205 H   0  0  0  0  0  0  0  0  0  0  0  0 
    8.4416    1.7757   -0.2357 H   0  0  0  0  0  0  0  0  0  0  0  0 
    6.8715    2.5397   -0.5850 H   0  0  0  0  0  0  0  0  0  0  0  0 
    7.0335    0.7648   -0.6301 H   0  0  0  0  0  0  0  0  0  0  0  0 
    3.0746    2.5051    4.5504 H   0  0  0  0  0  0  0  0  0  0  0  0 
    8.7766    1.8943    3.2726 H   0  0  0  0  0  0  0  0  0  0  0  0 
    9.4367    2.6703    1.8193 H   0  0  0  0  0  0  0  0  0  0  0  0 
    3.3560    2.5089    2.0151 H   0  0  0  0  0  0  0  0  0  0  0  0 
    3.1096    0.7582    1.9836 H   0  0  0  0  0  0  0  0  0  0  0  0 
    7.4485    0.7515    1.8483 H   0  0  0  0  0  0  0  0  0  0  0  0 
    5.4377    2.2154    3.3530 H   0  0  0  0  0  0  0  0  0  0  0  0 
  1 13  1  0  0  0  0 
  2 15  1  0  0  0  0 
  2 16  1  0  0  0  0 
  3  8  1  0  0  0  0 
  4  1  2  0  0  0  0 
  4 21  1  0  0  0  0 
  5 22  1  0  0  0  0 
  5  2  1  0  0  0  0 
  6  9  1  0  0  0  0 
  6  4  1  0  0  0  0 
  7 10  3  0  0  0  0 
  8 12  1  0  0  0  0 
  8 26  1  1  0  0  0 
  8 11  1  0  0  0  0 
  9  7  1  0  0  0  0 
  9 27  1  1  0  0  0 
 11  5  1  0  0  0  0 
 12  9  1  0  0  0  0 
 14  1  1  0  0  0  0 
 17  2  1  0  0  0  0 
 18  3  1  0  0  0  0 
 19  3  1  0  0  0  0 
 20  3  1  0  0  0  0 
 23  5  1  0  0  0  0 
 24  6  1  0  0  0  0 
 25  6  1  0  0  0  0 
M  END 
>  <HBA> 
3 
 
>  <HBD> 
0 
 
>  <TPSA> 
42.25 
 
>  <cid> 
44984 
 
>  <dipole> 
2.76 
 
>  <excitation_energy_1> 
6.537 
 
>  <excitation_energy_2> 
6.571 
 
>  <excitation_energy_3> 
6.706 
 
>  <excitation_energy_4> 
6.775 
 
>  <homo_energy> 
-7.233 
 
>  <homo_lumo_gap> 
7.339 
 
>  <logP> 
1.854 
 
>  <lumo_energy> 
0.106 
 
>  <melting_point> 
-33.15 
 
>  <molecular_refractivity> 
46.82 
 
>  <oscillator_strength_1> 
0.0574 
 
>  <oscillator_strength_2> 
0.0045 
 
>  <oscillator_strength_3> 
0.0394 
 
>  <oscillator_strength_4> 
0.0044 
 
>  <open_babel_can_smiles> 
C=CC[C@H](O[C@H](OCC)C)C#N 
 
>  <mulliken_charges> 
27 
1   -0.323255 
2   -0.453984 
3   -0.466587 
4   -0.058968 
5   -0.023976 
6   -0.324581 
7   0.344878 
8   0.363731 
9   0.09287 
10   -0.474432 
11   -0.484171 
12   -0.488051 
13   0.147814 
14   0.147621 
15   0.149214 
16   0.157351 
17   0.162388 
18   0.150398 
19   0.16888 
20   0.162507 
21   0.131902 
22   0.136599 
23   0.130065 
24   0.174001 
25   0.166681 
26   0.125062 
27   0.186046 
 
>  <lowdin_charges> 
27 
1   -0.3204 
2   -0.447528 
3   -0.455333 
4   -0.155668 
5   -0.12717 
6   -0.266799 
7   -0.028737 
8   0.105609 
9   -0.001592 
10   -0.119641 
11   -0.27596 
12   -0.238759 
13   0.162769 
14   0.160977 
15   0.156769 
16   0.156771 
17   0.159566 
18   0.155817 
19   0.166705 
20   0.164934 
21   0.153338 
22   0.133877 
23   0.130785 
24   0.168403 
25   0.164506 
26   0.126827 
27   0.169935 
 
$$$$ 
 
