PCCDB-ID:  53517 
public computational chemistry database (PCCDB) project, http://pccdb.org 
 
 26 26  0  0  0  0  0  0  0  0999 V2000 
    0.9355    0.1839   -0.8599 C   0  0  0  0  0  0  0  0  0  0  0  0 
    5.0911    7.0203   -1.0194 C   0  0  0  0  0  0  0  0  0  0  0  0 
    5.6990    6.4382   -4.1527 C   0  0  0  0  0  0  0  0  0  0  0  0 
    2.4360    0.4744   -0.7512 C   0  0  0  0  0  0  0  0  0  0  0  0 
    2.8216    1.8476   -1.3144 C   0  0  0  0  0  0  0  0  0  0  0  0 
    4.3319    2.1393   -1.1973 C   0  0  0  0  0  0  0  0  0  0  0  0 
    5.0457    5.7025   -1.7400 C   0  0  0  0  0  0  0  0  0  0  0  0 
    5.3061    5.4794   -3.0683 C   0  0  0  0  0  0  0  0  0  0  0  0 
    4.7093    3.4984   -1.7143 C   0  0  0  0  0  0  0  0  0  0  0  0 
    4.7116    4.5810   -0.9972 N   0  0  0  0  0  0  0  0  0  0  0  0 
    5.1256    3.7697   -3.4062 S   0  0  0  0  0  0  0  0  0  0  0  0 
    0.6907   -0.8056   -0.4577 H   0  0  0  0  0  0  0  0  0  0  0  0 
    0.6014    0.2116   -1.9042 H   0  0  0  0  0  0  0  0  0  0  0  0 
    0.3474    0.9251   -0.3051 H   0  0  0  0  0  0  0  0  0  0  0  0 
    5.3543    7.8478   -1.6829 H   0  0  0  0  0  0  0  0  0  0  0  0 
    5.8255    6.9876   -0.2059 H   0  0  0  0  0  0  0  0  0  0  0  0 
    4.1185    7.2425   -0.5649 H   0  0  0  0  0  0  0  0  0  0  0  0 
    5.7716    7.4555   -3.7586 H   0  0  0  0  0  0  0  0  0  0  0  0 
    4.9667    6.4511   -4.9695 H   0  0  0  0  0  0  0  0  0  0  0  0 
    6.6718    6.1819   -4.5901 H   0  0  0  0  0  0  0  0  0  0  0  0 
    3.0001   -0.3074   -1.2796 H   0  0  0  0  0  0  0  0  0  0  0  0 
    2.7461    0.4147    0.3016 H   0  0  0  0  0  0  0  0  0  0  0  0 
    2.2709    2.6362   -0.7853 H   0  0  0  0  0  0  0  0  0  0  0  0 
    2.5202    1.9122   -2.3691 H   0  0  0  0  0  0  0  0  0  0  0  0 
    4.8986    1.3644   -1.7289 H   0  0  0  0  0  0  0  0  0  0  0  0 
    4.6313    2.0973   -0.1436 H   0  0  0  0  0  0  0  0  0  0  0  0 
  1  4  1  0  0  0  0 
  1 12  1  0  0  0  0 
  1 14  1  0  0  0  0 
  2 17  1  0  0  0  0 
  2 16  1  0  0  0  0 
  3 18  1  0  0  0  0 
  3  8  1  0  0  0  0 
  4 22  1  0  0  0  0 
  5  6  1  0  0  0  0 
  5 23  1  0  0  0  0 
  5  4  1  0  0  0  0 
  6 26  1  0  0  0  0 
  7  2  1  0  0  0  0 
  7 10  1  0  0  0  0 
  8  7  2  0  0  0  0 
  9  6  1  0  0  0  0 
  9 10  2  0  0  0  0 
 11  8  1  0  0  0  0 
 11  9  1  0  0  0  0 
 13  1  1  0  0  0  0 
 15  2  1  0  0  0  0 
 19  3  1  0  0  0  0 
 20  3  1  0  0  0  0 
 21  4  1  0  0  0  0 
 24  5  1  0  0  0  0 
 25  6  1  0  0  0  0 
M  END 
>  <HBA> 
2 
 
>  <HBD> 
0 
 
>  <TPSA> 
41.13 
 
>  <cid> 
53517 
 
>  <dipole> 
0.86 
 
>  <excitation_energy_1> 
5.039 
 
>  <excitation_energy_2> 
5.146 
 
>  <excitation_energy_3> 
5.35 
 
>  <excitation_energy_4> 
5.578 
 
>  <homo_energy> 
-5.981 
 
>  <homo_lumo_gap> 
5.668 
 
>  <logP> 
3.103 
 
>  <lumo_energy> 
-0.313 
 
>  <melting_point> 
29.57 
 
>  <molecular_refractivity> 
51.43 
 
>  <oscillator_strength_1> 
0.0867 
 
>  <oscillator_strength_2> 
0.0903 
 
>  <oscillator_strength_3> 
0.0009 
 
>  <oscillator_strength_4> 
0.0044 
 
>  <open_babel_can_smiles> 
CCCCc1sc(c(n1)C)C 
 
>  <mulliken_charges> 
26 
1   -0.442376 
2   -0.508027 
3   -0.511486 
4   -0.248614 
5   -0.248759 
6   -0.31949 
7   0.285006 
8   -0.147373 
9   0.099198 
10   -0.441761 
11   0.186844 
12   0.143598 
13   0.143196 
14   0.144939 
15   0.148179 
16   0.168471 
17   0.168093 
18   0.168074 
19   0.16991 
20   0.170171 
21   0.131525 
22   0.134695 
23   0.150639 
24   0.138591 
25   0.148291 
26   0.168466 
 
>  <lowdin_charges> 
26 
1   -0.443519 
2   -0.440269 
3   -0.435866 
4   -0.272348 
5   -0.271009 
6   -0.275804 
7   0.004311 
8   -0.181181 
9   -0.077125 
10   -0.176411 
11   0.250206 
12   0.150058 
13   0.146165 
14   0.149503 
15   0.15516 
16   0.166229 
17   0.165477 
18   0.164137 
19   0.164589 
20   0.16404 
21   0.140405 
22   0.139654 
23   0.150795 
24   0.142245 
25   0.155416 
26   0.165143 
 
$$$$ 
 
