PCCDB-ID:  40975 
public computational chemistry database (PCCDB) project, http://pccdb.org 
 
 19 19  0  0  0  0  0  0  0  0999 V2000 
   -1.4745   -0.0543   -0.1222 C   0  0  0  0  0  0  0  0  0  0  0  0 
   -0.8131    1.1653   -0.1252 C   0  0  0  0  0  0  0  0  0  0  0  0 
    0.6612   -1.1961   -0.1079 C   0  0  0  0  0  0  0  0  0  0  0  0 
   -1.4332   -2.5506   -0.1170 C   0  0  0  0  0  0  0  0  0  0  0  0 
    2.8638    0.0757   -0.0968 C   0  0  0  0  0  0  0  0  0  0  0  0 
   -0.7406   -1.2493   -0.1158 C   0  0  0  0  0  0  0  0  0  0  0  0 
    1.3465    0.0146   -0.1038 C   0  0  0  0  0  0  0  0  0  0  0  0 
    0.5887    1.2002   -0.1207 C   0  0  0  0  0  0  0  0  0  0  0  0 
   -2.6426   -2.6966   -0.1166 O   0  0  0  0  0  0  0  0  0  0  0  0 
    3.4760   -1.1600    0.2441 O   0  0  0  0  0  0  0  0  0  0  0  0 
    1.2856    2.3740   -0.1329 O   0  0  0  0  0  0  0  0  0  0  0  0 
   -2.5588   -0.1061   -0.1266 H   0  0  0  0  0  0  0  0  0  0  0  0 
   -1.3739    2.0985   -0.1332 H   0  0  0  0  0  0  0  0  0  0  0  0 
    1.2406   -2.1161   -0.1060 H   0  0  0  0  0  0  0  0  0  0  0  0 
   -0.7560   -3.4342   -0.1183 H   0  0  0  0  0  0  0  0  0  0  0  0 
    3.1987    0.8885    0.5634 H   0  0  0  0  0  0  0  0  0  0  0  0 
    3.2344    0.3188   -1.0994 H   0  0  0  0  0  0  0  0  0  0  0  0 
    3.2737   -1.3380    1.1763 H   0  0  0  0  0  0  0  0  0  0  0  0 
    0.6622    3.1175   -0.1312 H   0  0  0  0  0  0  0  0  0  0  0  0 
  1  6  1  0  0  0  0 
  2  1  2  0  0  0  0 
  2  8  1  0  0  0  0 
  3 14  1  0  0  0  0 
  3  7  1  0  0  0  0 
  4  9  2  0  0  0  0 
  4  6  1  0  0  0  0 
  5 10  1  0  0  0  0 
  5 16  1  0  0  0  0 
  6  3  2  0  0  0  0 
  7  5  1  0  0  0  0 
  8  7  2  0  0  0  0 
 10 18  1  0  0  0  0 
 11 19  1  0  0  0  0 
 11  8  1  0  0  0  0 
 12  1  1  0  0  0  0 
 13  2  1  0  0  0  0 
 15  4  1  0  0  0  0 
 17  5  1  0  0  0  0 
M  END 
>  <HBA> 
3 
 
>  <HBD> 
2 
 
>  <TPSA> 
57.53 
 
>  <cid> 
40975 
 
>  <dipole> 
4.05 
 
>  <excitation_energy_1> 
3.768 
 
>  <excitation_energy_2> 
4.662 
 
>  <excitation_energy_3> 
4.779 
 
>  <excitation_energy_4> 
5.409 
 
>  <homo_energy> 
-6.457 
 
>  <homo_lumo_gap> 
5.001 
 
>  <logP> 
0.697 
 
>  <lumo_energy> 
-1.456 
 
>  <melting_point> 
101.52 
 
>  <molecular_refractivity> 
39.98 
 
>  <oscillator_strength_1> 
0.0001 
 
>  <oscillator_strength_2> 
0.1119 
 
>  <oscillator_strength_3> 
0.1594 
 
>  <oscillator_strength_4> 
0.0007 
 
>  <open_babel_can_smiles> 
OCc1cc(C=O)ccc1O 
 
>  <mulliken_charges> 
19 
1   -0.166026 
2   -0.188294 
3   -0.251488 
4   0.18927 
5   -0.084582 
6   0.104171 
7   0.066404 
8   0.31113 
9   -0.418438 
10   -0.60704 
11   -0.636624 
12   0.165331 
13   0.129578 
14   0.151875 
15   0.099937 
16   0.152431 
17   0.174113 
18   0.392478 
19   0.415773 
 
>  <lowdin_charges> 
19 
1   -0.114366 
2   -0.207984 
3   -0.143553 
4   0.039841 
5   -0.13094 
6   -0.071523 
7   -0.058076 
8   0.109696 
9   -0.238937 
10   -0.453996 
11   -0.36861 
12   0.175622 
13   0.15823 
14   0.169703 
15   0.117631 
16   0.147153 
17   0.16275 
18   0.343175 
19   0.364182 
 
$$$$ 
 
