PCCDB-ID:  58300 
public computational chemistry database (PCCDB) project, http://pccdb.org 
 
 30 30  0  0  1  0  0  0  0  0999 V2000 
    2.4326   -0.8285    0.4222 C   0  0  0  0  0  0  0  0  0  0  0  0 
    1.2568    1.3035   -0.0100 C   0  0  0  0  0  0  0  0  0  0  0  0 
    8.6685   -0.3858   -1.0456 C   0  0  0  0  0  0  0  0  0  0  0  0 
    9.4505    0.2592   -2.1986 C   0  0  0  0  0  0  0  0  0  0  0  0 
    7.2118   -0.6337   -1.4648 C   0  0  0  0  0  0  0  0  0  0  0  0 
    8.6956    1.4838   -2.7234 C   0  0  0  0  0  0  0  0  0  0  0  0 
    5.1704    0.4484   -2.5803 C   0  0  0  0  0  0  0  0  0  0  0  0 
    3.2141    0.6762   -1.3330 C   0  0  0  0  0  0  0  0  0  0  0  0 
    6.5863    0.6463   -2.0278 C   0  0  2  0  0  0  0  0  0  0  0  0 
    4.2700   -0.0122   -1.5411 N   0  0  0  0  0  0  0  0  0  0  0  0 
    2.2350    0.3241   -0.4384 N   0  0  0  0  0  0  0  0  0  0  0  0 
    7.3656    1.1629   -3.1093 O   0  0  0  0  0  0  0  0  0  0  0  0 
    1.4608   -1.2730    0.6649 H   0  0  0  0  0  0  0  0  0  0  0  0 
    2.9377   -0.5583    1.3630 H   0  0  0  0  0  0  0  0  0  0  0  0 
    3.0525   -1.5556   -0.1033 H   0  0  0  0  0  0  0  0  0  0  0  0 
    0.2746    0.8304    0.1109 H   0  0  0  0  0  0  0  0  0  0  0  0 
    1.1667    2.0895   -0.7655 H   0  0  0  0  0  0  0  0  0  0  0  0 
    1.5253    1.7771    0.9485 H   0  0  0  0  0  0  0  0  0  0  0  0 
    8.6873    0.2865   -0.1747 H   0  0  0  0  0  0  0  0  0  0  0  0 
    9.1442   -1.3220   -0.7278 H   0  0  0  0  0  0  0  0  0  0  0  0 
    9.5664   -0.4626   -3.0180 H   0  0  0  0  0  0  0  0  0  0  0  0 
   10.4583    0.5551   -1.8784 H   0  0  0  0  0  0  0  0  0  0  0  0 
    6.6063   -0.9913   -0.6255 H   0  0  0  0  0  0  0  0  0  0  0  0 
    7.1756   -1.4074   -2.2452 H   0  0  0  0  0  0  0  0  0  0  0  0 
    9.1765    1.8987   -3.6153 H   0  0  0  0  0  0  0  0  0  0  0  0 
    8.6794    2.2726   -1.9493 H   0  0  0  0  0  0  0  0  0  0  0  0 
    5.2231   -0.3034   -3.3814 H   0  0  0  0  0  0  0  0  0  0  0  0 
    4.8505    1.3960   -3.0489 H   0  0  0  0  0  0  0  0  0  0  0  0 
    2.9787    1.6004   -1.8829 H   0  0  0  0  0  0  0  0  0  0  0  0 
    6.5420    1.4039   -1.2225 H   0  0  0  0  0  0  0  0  0  0  0  0 
  1 13  1  0  0  0  0 
  1 14  1  0  0  0  0 
  2 16  1  0  0  0  0 
  2 18  1  0  0  0  0 
  3 20  1  0  0  0  0 
  3 19  1  0  0  0  0 
  4 22  1  0  0  0  0 
  4  3  1  0  0  0  0 
  5  3  1  0  0  0  0 
  5 23  1  0  0  0  0 
  6  4  1  0  0  0  0 
  6 26  1  0  0  0  0 
  7  9  1  0  0  0  0 
  7 10  1  0  0  0  0 
  8 11  1  0  0  0  0 
  9  5  1  0  0  0  0 
  9 30  1  1  0  0  0 
 10  8  2  0  0  0  0 
 11  2  1  0  0  0  0 
 11  1  1  0  0  0  0 
 12  6  1  0  0  0  0 
 12  9  1  0  0  0  0 
 15  1  1  0  0  0  0 
 17  2  1  0  0  0  0 
 21  4  1  0  0  0  0 
 24  5  1  0  0  0  0 
 25  6  1  0  0  0  0 
 27  7  1  0  0  0  0 
 28  7  1  0  0  0  0 
 29  8  1  0  0  0  0 
M  END 
>  <HBA> 
3 
 
>  <HBD> 
0 
 
>  <TPSA> 
24.83 
 
>  <cid> 
58300 
 
>  <dipole> 
2.54 
 
>  <excitation_energy_1> 
5.123 
 
>  <excitation_energy_2> 
5.614 
 
>  <excitation_energy_3> 
5.692 
 
>  <excitation_energy_4> 
5.73 
 
>  <homo_energy> 
-5.63 
 
>  <homo_lumo_gap> 
6.667 
 
>  <logP> 
1.145 
 
>  <lumo_energy> 
1.037 
 
>  <melting_point> 
5.57 
 
>  <molecular_refractivity> 
50.93 
 
>  <oscillator_strength_1> 
0.0226 
 
>  <oscillator_strength_2> 
0.1263 
 
>  <oscillator_strength_3> 
0.0585 
 
>  <oscillator_strength_4> 
0.0086 
 
>  <open_babel_can_smiles> 
CN(/C=N/C[C@H]1CCCCO1)C 
 
>  <mulliken_charges> 
30 
1   -0.307406 
2   -0.308106 
3   -0.274117 
4   -0.268989 
5   -0.261522 
6   -0.02157 
7   -0.153976 
8   0.259901 
9   0.161242 
10   -0.441724 
11   -0.372464 
12   -0.492722 
13   0.145489 
14   0.145979 
15   0.195446 
16   0.157434 
17   0.161277 
18   0.149555 
19   0.126956 
20   0.133531 
21   0.13949 
22   0.12754 
23   0.150626 
24   0.129976 
25   0.138917 
26   0.112032 
27   0.140465 
28   0.117728 
29   0.109702 
30   0.099309 
 
>  <lowdin_charges> 
30 
1   -0.353689 
2   -0.347359 
3   -0.28043 
4   -0.29338 
5   -0.293014 
6   -0.132917 
7   -0.200863 
8   -0.038913 
9   -0.004792 
10   -0.250112 
11   -0.105896 
12   -0.27858 
13   0.14893 
14   0.142433 
15   0.179997 
16   0.151051 
17   0.159521 
18   0.140793 
19   0.137093 
20   0.144704 
21   0.145241 
22   0.144274 
23   0.157754 
24   0.142784 
25   0.147198 
26   0.121939 
27   0.144936 
28   0.127213 
29   0.124963 
30   0.119123 
 
$$$$ 
 
