PCCDB-ID:  67486 
public computational chemistry database (PCCDB) project, http://pccdb.org 
 
 21 23  0  0  0  0  0  0  0  0999 V2000 
    3.0591    1.1019    0.0012 C   0  0  0  0  0  0  0  0  0  0  0  0 
    3.4085   -0.2597   -0.0245 C   0  0  0  0  0  0  0  0  0  0  0  0 
   -3.0443    1.1051    0.0004 C   0  0  0  0  0  0  0  0  0  0  0  0 
    1.7231    1.4929    0.0084 C   0  0  0  0  0  0  0  0  0  0  0  0 
   -1.7130    1.5246    0.0095 C   0  0  0  0  0  0  0  0  0  0  0  0 
    2.4371   -1.2582   -0.0438 C   0  0  0  0  0  0  0  0  0  0  0  0 
   -3.3405   -0.2657   -0.0284 C   0  0  0  0  0  0  0  0  0  0  0  0 
    0.7250    0.5114   -0.0104 C   0  0  0  0  0  0  0  0  0  0  0  0 
   -0.7227    0.5429   -0.0116 C   0  0  0  0  0  0  0  0  0  0  0  0 
    1.0985   -0.8615   -0.0371 C   0  0  0  0  0  0  0  0  0  0  0  0 
   -1.1617   -0.8112   -0.0393 C   0  0  0  0  0  0  0  0  0  0  0  0 
   -2.4197   -1.2402   -0.0483 N   0  0  0  0  0  0  0  0  0  0  0  0 
   -0.0530   -1.6346   -0.0540 N   0  0  0  0  0  0  0  0  0  0  0  0 
    3.8416    1.8550    0.0167 H   0  0  0  0  0  0  0  0  0  0  0  0 
    4.4577   -0.5420   -0.0285 H   0  0  0  0  0  0  0  0  0  0  0  0 
   -3.8536    1.8282    0.0148 H   0  0  0  0  0  0  0  0  0  0  0  0 
    1.4581    2.5469    0.0288 H   0  0  0  0  0  0  0  0  0  0  0  0 
   -1.4615    2.5819    0.0319 H   0  0  0  0  0  0  0  0  0  0  0  0 
    2.7135   -2.3088   -0.0628 H   0  0  0  0  0  0  0  0  0  0  0  0 
   -4.3772   -0.5965   -0.0358 H   0  0  0  0  0  0  0  0  0  0  0  0 
   -0.1017   -2.6420   -0.0753 H   0  0  0  0  0  0  0  0  0  0  0  0 
  1  4  1  0  0  0  0 
  1 14  1  0  0  0  0 
  2  1  2  0  0  0  0 
  3  5  1  0  0  0  0 
  3 16  1  0  0  0  0 
  4 17  1  0  0  0  0 
  5 18  1  0  0  0  0 
  6 10  2  0  0  0  0 
  6  2  1  0  0  0  0 
  7  3  2  0  0  0  0 
  8  4  2  0  0  0  0 
  9  8  1  0  0  0  0 
  9  5  2  0  0  0  0 
 10  8  1  0  0  0  0 
 11  9  1  0  0  0  0 
 12 11  2  0  0  0  0 
 12  7  1  0  0  0  0 
 13 11  1  0  0  0  0 
 13 10  1  0  0  0  0 
 15  2  1  0  0  0  0 
 19  6  1  0  0  0  0 
 20  7  1  0  0  0  0 
 21 13  1  0  0  0  0 
M  END 
>  <HBA> 
1 
 
>  <HBD> 
1 
 
>  <TPSA> 
28.68 
 
>  <cid> 
67486 
 
>  <dipole> 
0.93 
 
>  <excitation_energy_1> 
3.987 
 
>  <excitation_energy_2> 
4.382 
 
>  <excitation_energy_3> 
4.916 
 
>  <excitation_energy_4> 
5.14 
 
>  <homo_energy> 
-5.769 
 
>  <homo_lumo_gap> 
4.746 
 
>  <logP> 
2.716 
 
>  <lumo_energy> 
-1.023 
 
>  <melting_point> 
155.77 
 
>  <molecular_refractivity> 
53.6 
 
>  <oscillator_strength_1> 
0.0257 
 
>  <oscillator_strength_2> 
0.1937 
 
>  <oscillator_strength_3> 
0.0025 
 
>  <oscillator_strength_4> 
0.4228 
 
>  <open_babel_can_smiles> 
c1ccc2c(c1)[nH]c1c2cccn1 
 
>  <mulliken_charges> 
21 
1   -0.147479 
2   -0.138588 
3   -0.168268 
4   -0.190277 
5   -0.150327 
6   -0.179767 
7   0.035617 
8   0.045375 
9   0.078473 
10   0.352329 
11   0.492986 
12   -0.514624 
13   -0.771587 
14   0.126479 
15   0.129341 
16   0.131799 
17   0.130637 
18   0.140892 
19   0.12891 
20   0.137677 
21   0.330402 
 
>  <lowdin_charges> 
21 
1   -0.17723 
2   -0.148988 
3   -0.200265 
4   -0.149185 
5   -0.125879 
6   -0.187495 
7   -0.08514 
8   -0.036231 
9   -0.048117 
10   0.049101 
11   0.079805 
12   -0.172126 
13   -0.205105 
14   0.158614 
15   0.157604 
16   0.163513 
17   0.157485 
18   0.161344 
19   0.157809 
20   0.154819 
21   0.295666 
 
$$$$ 
 
