PCCDB-ID:  35087 
public computational chemistry database (PCCDB) project, http://pccdb.org 
 
 20 20  0  0  0  0  0  0  0  0999 V2000 
    2.7484    0.2140   -1.7224 C   0  0  0  0  0  0  0  0  0  0  0  0 
    6.4871   -4.0712    1.9236 C   0  0  0  0  0  0  0  0  0  0  0  0 
    2.7248    0.1793   -0.1867 C   0  0  0  0  0  0  0  0  0  0  0  0 
    6.7135   -0.6557    0.8040 C   0  0  0  0  0  0  0  0  0  0  0  0 
    6.0555   -2.7353    1.3935 C   0  0  0  0  0  0  0  0  0  0  0  0 
    4.3875   -1.3181    0.6028 C   0  0  0  0  0  0  0  0  0  0  0  0 
    3.1587   -1.1046    0.3321 N   0  0  0  0  0  0  0  0  0  0  0  0 
    7.0903   -1.7993    1.2786 N   0  0  0  0  0  0  0  0  0  0  0  0 
    5.4390   -0.3627    0.4496 N   0  0  0  0  0  0  0  0  0  0  0  0 
    4.8058   -2.5523    1.0923 N   0  0  0  0  0  0  0  0  0  0  0  0 
    2.3374    1.1581   -2.0985 H   0  0  0  0  0  0  0  0  0  0  0  0 
    2.1516   -0.6109   -2.1233 H   0  0  0  0  0  0  0  0  0  0  0  0 
    3.7677    0.1041   -2.1124 H   0  0  0  0  0  0  0  0  0  0  0  0 
    7.2652   -4.4952    1.2779 H   0  0  0  0  0  0  0  0  0  0  0  0 
    5.6372   -4.7523    1.9800 H   0  0  0  0  0  0  0  0  0  0  0  0 
    6.9347   -3.9501    2.9172 H   0  0  0  0  0  0  0  0  0  0  0  0 
    1.6943    0.3363    0.1528 H   0  0  0  0  0  0  0  0  0  0  0  0 
    3.2970    1.0403    0.2127 H   0  0  0  0  0  0  0  0  0  0  0  0 
    7.4438    0.1416    0.6656 H   0  0  0  0  0  0  0  0  0  0  0  0 
    5.2234    0.5544    0.0828 H   0  0  0  0  0  0  0  0  0  0  0  0 
  1  3  1  0  0  0  0 
  2 15  1  0  0  0  0 
  2 16  1  0  0  0  0 
  3 17  1  0  0  0  0 
  3 18  1  0  0  0  0 
  3  7  1  0  0  0  0 
  4  8  1  0  0  0  0 
  5  2  1  0  0  0  0 
  6 10  2  0  0  0  0 
  7  6  1  0  0  0  0 
  8  5  2  0  0  0  0 
  9  6  1  0  0  0  0 
  9  4  1  0  0  0  0 
 10  5  1  0  0  0  0 
 11  1  1  0  0  0  0 
 12  1  1  0  0  0  0 
 13  1  1  0  0  0  0 
 14  2  1  0  0  0  0 
 19  4  1  0  0  0  0 
 20  9  1  0  0  0  0 
M  RAD  1   7   2 
M  END 
>  <HBA> 
4 
 
>  <HBD> 
1 
 
>  <TPSA> 
50.7 
 
>  <cid> 
35087 
 
>  <dipole> 
4.04 
 
>  <excitation_energy_1> 
3.973 
 
>  <excitation_energy_2> 
4.173 
 
>  <excitation_energy_3> 
4.554 
 
>  <excitation_energy_4> 
5.045 
 
>  <homo_energy> 
-6.106 
 
>  <homo_lumo_gap> 
4.827 
 
>  <logP> 
0.685 
 
>  <lumo_energy> 
-1.279 
 
>  <melting_point> 
88.56 
 
>  <molecular_refractivity> 
38.91 
 
>  <oscillator_strength_1> 
0.014 
 
>  <oscillator_strength_2> 
0.0026 
 
>  <oscillator_strength_3> 
0.0008 
 
>  <oscillator_strength_4> 
0.0242 
 
>  <open_babel_can_smiles> 
CC[N]C1=NC(=NCN1)C 
 
>  <mulliken_charges> 
20 
1   -0.439363 
2   -0.49863 
3   -0.164135 
4   0.262231 
5   0.41318 
6   0.629061 
7   -0.436045 
8   -0.447643 
9   -0.614805 
10   -0.449768 
11   0.142206 
12   0.1716 
13   0.134086 
14   0.172752 
15   0.180521 
16   0.1733 
17   0.158017 
18   0.093711 
19   0.170559 
20   0.349167 
 
>  <lowdin_charges> 
20 
1   -0.450714 
2   -0.444418 
3   -0.203006 
4   0.002692 
5   0.113807 
6   0.111367 
7   -0.220035 
8   -0.217843 
9   -0.225924 
10   -0.168519 
11   0.150751 
12   0.163848 
13   0.1411 
14   0.172953 
15   0.173459 
16   0.171848 
17   0.15212 
18   0.109091 
19   0.169708 
20   0.297717 
 
$$$$ 
 
