PCCDB-ID:  25915 
public computational chemistry database (PCCDB) project, http://pccdb.org 
 
 19 19  0  0  0  0  0  0  0  0999 V2000 
    1.1324   -0.5133   -0.1410 C   0  0  0  0  0  0  0  0  0  0  0  0 
    3.5440    4.3085   -3.7026 C   0  0  0  0  0  0  0  0  0  0  0  0 
    2.5425    0.0776    0.0240 C   0  0  0  0  0  0  0  0  0  0  0  0 
    3.1185    1.8682   -3.1147 C   0  0  0  0  0  0  0  0  0  0  0  0 
    2.9898    2.5232   -0.5514 C   0  0  0  0  0  0  0  0  0  0  0  0 
    3.2877    3.2029   -2.7108 C   0  0  0  0  0  0  0  0  0  0  0  0 
    2.8204    1.1943   -0.9534 C   0  0  0  0  0  0  0  0  0  0  0  0 
    3.2213    3.5220   -1.4111 N   0  0  0  0  0  0  0  0  0  0  0  0 
    2.8884    0.8743   -2.2586 N   0  0  0  0  0  0  0  0  0  0  0  0 
    0.9834   -1.3583    0.5401 H   0  0  0  0  0  0  0  0  0  0  0  0 
    0.9880   -0.8662   -1.1668 H   0  0  0  0  0  0  0  0  0  0  0  0 
    0.3616    0.2359    0.0728 H   0  0  0  0  0  0  0  0  0  0  0  0 
    4.4455    4.1137   -4.2961 H   0  0  0  0  0  0  0  0  0  0  0  0 
    3.6726    5.2535   -3.1703 H   0  0  0  0  0  0  0  0  0  0  0  0 
    2.7092    4.4153   -4.4062 H   0  0  0  0  0  0  0  0  0  0  0  0 
    3.2840   -0.7154   -0.1350 H   0  0  0  0  0  0  0  0  0  0  0  0 
    2.6804    0.4457    1.0478 H   0  0  0  0  0  0  0  0  0  0  0  0 
    3.1750    1.5998   -4.1695 H   0  0  0  0  0  0  0  0  0  0  0  0 
    2.9400    2.7929    0.5027 H   0  0  0  0  0  0  0  0  0  0  0  0 
  1  3  1  0  0  0  0 
  1 12  1  0  0  0  0 
  1 10  1  0  0  0  0 
  2 14  1  0  0  0  0 
  2  6  1  0  0  0  0 
  3 17  1  0  0  0  0 
  4  6  2  0  0  0  0 
  4  9  1  0  0  0  0 
  5 19  1  0  0  0  0 
  6  8  1  0  0  0  0 
  7  5  1  0  0  0  0 
  7  3  1  0  0  0  0 
  8  5  2  0  0  0  0 
  9  7  2  0  0  0  0 
 11  1  1  0  0  0  0 
 13  2  1  0  0  0  0 
 15  2  1  0  0  0  0 
 16  3  1  0  0  0  0 
 18  4  1  0  0  0  0 
M  END 
>  <HBA> 
2 
 
>  <HBD> 
0 
 
>  <TPSA> 
25.78 
 
>  <cid> 
25915 
 
>  <dipole> 
0.19 
 
>  <excitation_energy_1> 
4.029 
 
>  <excitation_energy_2> 
4.724 
 
>  <excitation_energy_3> 
5.068 
 
>  <excitation_energy_4> 
5.595 
 
>  <homo_energy> 
-6.542 
 
>  <homo_lumo_gap> 
5.412 
 
>  <logP> 
1.347 
 
>  <lumo_energy> 
-1.129 
 
>  <melting_point> 
42.34 
 
>  <molecular_refractivity> 
36.77 
 
>  <oscillator_strength_1> 
0.005 
 
>  <oscillator_strength_2> 
0.0003 
 
>  <oscillator_strength_3> 
0.1218 
 
>  <oscillator_strength_4> 
0.0 
 
>  <open_babel_can_smiles> 
CCc1cnc(cn1)C 
 
>  <mulliken_charges> 
19 
1   -0.442768 
2   -0.523979 
3   -0.318092 
4   0.007427 
5   -0.009097 
6   0.296876 
7   0.299322 
8   -0.431181 
9   -0.436843 
10   0.145906 
11   0.169661 
12   0.145738 
13   0.165574 
14   0.180149 
15   0.166483 
16   0.16066 
17   0.141576 
18   0.141197 
19   0.141391 
 
>  <lowdin_charges> 
19 
1   -0.440787 
2   -0.448953 
3   -0.273612 
4   -0.109832 
5   -0.115842 
6   0.033155 
7   0.031374 
8   -0.132555 
9   -0.130426 
10   0.152051 
11   0.159745 
12   0.149916 
13   0.164745 
14   0.172936 
15   0.165431 
16   0.16147 
17   0.147376 
18   0.156633 
19   0.157176 
 
$$$$ 
 
