PCCDB-ID:  45917 
public computational chemistry database (PCCDB) project, http://pccdb.org 
 
 30 30  0  0  1  0  0  0  0  0999 V2000 
    2.1086    0.7094   -0.8133 C   0  0  0  0  0  0  0  0  0  0  0  0 
    3.7512    0.9004    1.0735 C   0  0  0  0  0  0  0  0  0  0  0  0 
    1.3800    0.1662    1.5220 C   0  0  0  0  0  0  0  0  0  0  0  0 
    3.4390   -2.1334    1.5708 C   0  0  0  0  0  0  0  0  0  0  0  0 
    3.7498   -1.9661   -2.9945 C   0  0  0  0  0  0  0  0  0  0  0  0 
    2.4136   -3.1084   -1.1124 C   0  0  0  0  0  0  0  0  0  0  0  0 
    3.7689   -2.5412   -1.5799 C   0  0  2  0  0  0  0  0  0  0  0  0 
    2.5573    0.0919    0.5268 C   0  0  0  0  0  0  0  0  0  0  0  0 
    2.9725   -1.3956    0.3084 C   0  0  2  0  0  0  0  0  0  0  0  0 
    4.9321   -1.2392   -3.2690 O   0  0  0  0  0  0  0  0  0  0  0  0 
    1.8754   -2.0874   -0.2831 O   0  0  0  0  0  0  0  0  0  0  0  0 
    4.0291   -1.4634   -0.6661 O   0  0  0  0  0  0  0  0  0  0  0  0 
    1.7966    1.7481   -0.6553 H   0  0  0  0  0  0  0  0  0  0  0  0 
    1.2638    0.1602   -1.2381 H   0  0  0  0  0  0  0  0  0  0  0  0 
    2.9209    0.7129   -1.5465 H   0  0  0  0  0  0  0  0  0  0  0  0 
    3.4782    1.9594    1.1463 H   0  0  0  0  0  0  0  0  0  0  0  0 
    4.6206    0.8198    0.4131 H   0  0  0  0  0  0  0  0  0  0  0  0 
    4.0503    0.5717    2.0745 H   0  0  0  0  0  0  0  0  0  0  0  0 
    1.0283    1.2013    1.6018 H   0  0  0  0  0  0  0  0  0  0  0  0 
    1.6678   -0.1572    2.5281 H   0  0  0  0  0  0  0  0  0  0  0  0 
    0.5407   -0.4525    1.1891 H   0  0  0  0  0  0  0  0  0  0  0  0 
    2.6547   -2.1557    2.3318 H   0  0  0  0  0  0  0  0  0  0  0  0 
    4.3315   -1.6642    1.9917 H   0  0  0  0  0  0  0  0  0  0  0  0 
    3.6960   -3.1669    1.3187 H   0  0  0  0  0  0  0  0  0  0  0  0 
    2.8503   -1.3401   -3.1135 H   0  0  0  0  0  0  0  0  0  0  0  0 
    3.6966   -2.7784   -3.7287 H   0  0  0  0  0  0  0  0  0  0  0  0 
    2.5352   -4.0511   -0.5613 H   0  0  0  0  0  0  0  0  0  0  0  0 
    1.7110   -3.2756   -1.9353 H   0  0  0  0  0  0  0  0  0  0  0  0 
    4.5787   -3.2766   -1.4945 H   0  0  0  0  0  0  0  0  0  0  0  0 
    5.0471   -0.6359   -2.5152 H   0  0  0  0  0  0  0  0  0  0  0  0 
  1 13  1  0  0  0  0 
  1  8  1  0  0  0  0 
  2 16  1  0  0  0  0 
  2 18  1  0  0  0  0 
  3 19  1  0  0  0  0 
  3 20  1  0  0  0  0 
  4 23  1  0  0  0  0 
  4 22  1  0  0  0  0 
  5  7  1  0  0  0  0 
  6 27  1  0  0  0  0 
  6 11  1  0  0  0  0 
  7 29  1  1  0  0  0 
  7  6  1  0  0  0  0 
  7 12  1  0  0  0  0 
  8  2  1  0  0  0  0 
  8  3  1  0  0  0  0 
  9  8  1  1  0  0  0 
  9  4  1  0  0  0  0 
 10  5  1  0  0  0  0 
 10 30  1  0  0  0  0 
 11  9  1  0  0  0  0 
 12  9  1  0  0  0  0 
 14  1  1  0  0  0  0 
 15  1  1  0  0  0  0 
 17  2  1  0  0  0  0 
 21  3  1  0  0  0  0 
 24  4  1  0  0  0  0 
 25  5  1  0  0  0  0 
 26  5  1  0  0  0  0 
 28  6  1  0  0  0  0 
M  END 
>  <HBA> 
3 
 
>  <HBD> 
1 
 
>  <TPSA> 
38.69 
 
>  <cid> 
45917 
 
>  <dipole> 
1.86 
 
>  <excitation_energy_1> 
6.408 
 
>  <excitation_energy_2> 
6.572 
 
>  <excitation_energy_3> 
6.592 
 
>  <excitation_energy_4> 
6.853 
 
>  <homo_energy> 
-6.855 
 
>  <homo_lumo_gap> 
8.667 
 
>  <logP> 
1.156 
 
>  <lumo_energy> 
1.812 
 
>  <melting_point> 
24.45 
 
>  <molecular_refractivity> 
46.37 
 
>  <oscillator_strength_1> 
0.011 
 
>  <oscillator_strength_2> 
0.0019 
 
>  <oscillator_strength_3> 
0.0066 
 
>  <oscillator_strength_4> 
0.0121 
 
>  <open_babel_can_smiles> 
OC[C@@H]1CO[C@](O1)(C)C(C)(C)C 
 
>  <mulliken_charges> 
30 
1   -0.458363 
2   -0.457836 
3   -0.460016 
4   -0.468544 
5   -0.034548 
6   -0.074118 
7   0.113717 
8   0.069822 
9   0.56163 
10   -0.626767 
11   -0.509547 
12   -0.554239 
13   0.136589 
14   0.157265 
15   0.144929 
16   0.142449 
17   0.154889 
18   0.14142 
19   0.14119 
20   0.140009 
21   0.163888 
22   0.157654 
23   0.159849 
24   0.144761 
25   0.130776 
26   0.139553 
27   0.140105 
28   0.156745 
29   0.141209 
30   0.405529 
 
>  <lowdin_charges> 
30 
1   -0.446801 
2   -0.443357 
3   -0.444358 
4   -0.463398 
5   -0.149022 
6   -0.145469 
7   -0.029794 
8   0.004189 
9   0.217033 
10   -0.464455 
11   -0.256365 
12   -0.278276 
13   0.146407 
14   0.156388 
15   0.148576 
16   0.149718 
17   0.154995 
18   0.146917 
19   0.149562 
20   0.146043 
21   0.159845 
22   0.160564 
23   0.162464 
24   0.154819 
25   0.132472 
26   0.147543 
27   0.137655 
28   0.156366 
29   0.144458 
30   0.345284 
 
$$$$ 
 
