PCCDB-ID:  69241 
public computational chemistry database (PCCDB) project, http://pccdb.org 
 
 21 20  0  0  1  0  0  0  0  0999 V2000 
    5.4789    2.6095    0.9307 C   0  0  0  0  0  0  0  0  0  0  0  0 
    0.7684    0.4037    2.5351 C   0  0  0  0  0  0  0  0  0  0  0  0 
    4.9427    1.1691    1.0024 C   0  0  1  0  0  0  0  0  0  0  0  0 
    1.4079    1.7339    2.1551 C   0  0  1  0  0  0  0  0  0  0  0  0 
    1.0588    2.8394    3.1614 C   0  0  0  0  0  0  0  0  0  0  0  0 
    3.4179    1.1665    0.9625 C   0  0  0  0  0  0  0  0  0  0  0  0 
    5.4345    0.3823   -0.0583 O   0  0  0  0  0  0  0  0  0  0  0  0 
   -0.0889    3.1100    3.4102 O   0  0  0  0  0  0  0  0  0  0  0  0 
    2.0937    3.4812    3.7348 O   0  0  0  0  0  0  0  0  0  0  0  0 
    2.7814    0.8220   -0.0097 O   0  0  0  0  0  0  0  0  0  0  0  0 
    2.8631    1.6212    2.1096 O   0  0  0  0  0  0  0  0  0  0  0  0 
    5.1703    3.2038    1.7977 H   0  0  0  0  0  0  0  0  0  0  0  0 
    5.1259    3.1031    0.0189 H   0  0  0  0  0  0  0  0  0  0  0  0 
    6.5712    2.5755    0.9012 H   0  0  0  0  0  0  0  0  0  0  0  0 
   -0.3094    0.5486    2.6428 H   0  0  0  0  0  0  0  0  0  0  0  0 
    1.1694    0.0391    3.4862 H   0  0  0  0  0  0  0  0  0  0  0  0 
    0.9549   -0.3392    1.7559 H   0  0  0  0  0  0  0  0  0  0  0  0 
    5.2616    0.7107    1.9474 H   0  0  0  0  0  0  0  0  0  0  0  0 
    1.0642    2.0539    1.1676 H   0  0  0  0  0  0  0  0  0  0  0  0 
    4.7196    0.3319   -0.7187 H   0  0  0  0  0  0  0  0  0  0  0  0 
    2.9209    3.0826    3.4052 H   0  0  0  0  0  0  0  0  0  0  0  0 
  1  3  1  0  0  0  0 
  1 12  1  0  0  0  0 
  2 15  1  0  0  0  0 
  2 16  1  0  0  0  0 
  3 18  1  1  0  0  0 
  4 19  1  6  0  0  0 
  4  2  1  0  0  0  0 
  4  5  1  0  0  0  0 
  5  8  2  0  0  0  0 
  5  9  1  0  0  0  0 
  6  3  1  0  0  0  0 
  6 11  1  0  0  0  0 
  7  3  1  0  0  0  0 
 10  6  2  0  0  0  0 
 11  4  1  0  0  0  0 
 13  1  1  0  0  0  0 
 14  1  1  0  0  0  0 
 17  2  1  0  0  0  0 
 20  7  1  0  0  0  0 
 21  9  1  0  0  0  0 
M  END 
>  <HBA> 
5 
 
>  <HBD> 
2 
 
>  <TPSA> 
83.83 
 
>  <cid> 
69241 
 
>  <dipole> 
2.19 
 
>  <excitation_energy_1> 
5.708 
 
>  <excitation_energy_2> 
5.867 
 
>  <excitation_energy_3> 
6.075 
 
>  <excitation_energy_4> 
6.41 
 
>  <homo_energy> 
-7.66 
 
>  <homo_lumo_gap> 
6.966 
 
>  <logP> 
-0.617 
 
>  <lumo_energy> 
-0.694 
 
>  <melting_point> 
81.66 
 
>  <molecular_refractivity> 
35.17 
 
>  <oscillator_strength_1> 
0.0011 
 
>  <oscillator_strength_2> 
0.0105 
 
>  <oscillator_strength_3> 
0.0142 
 
>  <oscillator_strength_4> 
0.0074 
 
>  <open_babel_can_smiles> 
OC(=O)[C@@H](OC(=O)[C@@H](O)C)C 
 
>  <mulliken_charges> 
21 
1   -0.455288 
2   -0.463484 
3   0.076329 
4   0.0247 
5   0.589504 
6   0.61148 
7   -0.621787 
8   -0.443382 
9   -0.570574 
10   -0.474544 
11   -0.512834 
12   0.143485 
13   0.161266 
14   0.181434 
15   0.194117 
16   0.165355 
17   0.181236 
18   0.162718 
19   0.206862 
20   0.410097 
21   0.43331 
 
>  <lowdin_charges> 
21 
1   -0.45074 
2   -0.444459 
3   -0.02031 
4   -0.025235 
5   0.181536 
6   0.192775 
7   -0.45095 
8   -0.234568 
9   -0.34083 
10   -0.253676 
11   -0.206215 
12   0.151937 
13   0.160174 
14   0.169782 
15   0.180764 
16   0.162522 
17   0.17131 
18   0.15883 
19   0.182445 
20   0.35241 
21   0.362498 
 
$$$$ 
 
