PCCDB-ID:  7775 
public computational chemistry database (PCCDB) project, http://pccdb.org 
 
 32 31  0  0  0  0  0  0  0  0999 V2000 
    1.5413    0.8958    1.0695 C   0  0  0  0  0  0  0  0  0  0  0  0 
    8.7843   -4.7246   -1.8563 C   0  0  0  0  0  0  0  0  0  0  0  0 
    9.6460   -4.0356   -4.1431 C   0  0  0  0  0  0  0  0  0  0  0  0 
    2.6904    0.7911    0.0619 C   0  0  0  0  0  0  0  0  0  0  0  0 
    3.1147   -0.6555   -0.2228 C   0  0  0  0  0  0  0  0  0  0  0  0 
    4.2571   -0.7621   -1.2399 C   0  0  0  0  0  0  0  0  0  0  0  0 
    4.6768   -2.2085   -1.5084 C   0  0  0  0  0  0  0  0  0  0  0  0 
    7.1964   -3.8967   -3.6549 C   0  0  0  0  0  0  0  0  0  0  0  0 
    8.5983   -3.7788   -3.0500 C   0  0  0  0  0  0  0  0  0  0  0  0 
    5.7840   -2.3298   -2.5383 C   0  0  0  0  0  0  0  0  0  0  0  0 
    6.2741   -1.4088   -3.1563 O   0  0  0  0  0  0  0  0  0  0  0  0 
    6.1548   -3.6248   -2.6884 O   0  0  0  0  0  0  0  0  0  0  0  0 
    1.2571    1.9395    1.2452 H   0  0  0  0  0  0  0  0  0  0  0  0 
    1.8204    0.4594    2.0365 H   0  0  0  0  0  0  0  0  0  0  0  0 
    0.6507    0.3640    0.7122 H   0  0  0  0  0  0  0  0  0  0  0  0 
    9.7781   -4.6001   -1.4113 H   0  0  0  0  0  0  0  0  0  0  0  0 
    8.6875   -5.7733   -2.1677 H   0  0  0  0  0  0  0  0  0  0  0  0 
    8.0374   -4.5369   -1.0785 H   0  0  0  0  0  0  0  0  0  0  0  0 
   10.6597   -3.9438   -3.7379 H   0  0  0  0  0  0  0  0  0  0  0  0 
    9.5494   -3.3218   -4.9695 H   0  0  0  0  0  0  0  0  0  0  0  0 
    9.5464   -5.0475   -4.5577 H   0  0  0  0  0  0  0  0  0  0  0  0 
    3.5575    1.3549    0.4340 H   0  0  0  0  0  0  0  0  0  0  0  0 
    2.3971    1.2737   -0.8811 H   0  0  0  0  0  0  0  0  0  0  0  0 
    2.2446   -1.2224   -0.5869 H   0  0  0  0  0  0  0  0  0  0  0  0 
    3.4157   -1.1362    0.7203 H   0  0  0  0  0  0  0  0  0  0  0  0 
    5.1270   -0.1948   -0.8850 H   0  0  0  0  0  0  0  0  0  0  0  0 
    3.9622   -0.2924   -2.1864 H   0  0  0  0  0  0  0  0  0  0  0  0 
    3.8260   -2.8074   -1.8621 H   0  0  0  0  0  0  0  0  0  0  0  0 
    5.0163   -2.7030   -0.5884 H   0  0  0  0  0  0  0  0  0  0  0  0 
    7.0013   -4.9220   -3.9860 H   0  0  0  0  0  0  0  0  0  0  0  0 
    7.0799   -3.2126   -4.4995 H   0  0  0  0  0  0  0  0  0  0  0  0 
    8.7116   -2.7435   -2.7023 H   0  0  0  0  0  0  0  0  0  0  0  0 
  1 13  1  0  0  0  0 
  1 14  1  0  0  0  0 
  2 16  1  0  0  0  0 
  2 18  1  0  0  0  0 
  3 19  1  0  0  0  0 
  3  9  1  0  0  0  0 
  4 22  1  0  0  0  0 
  4  1  1  0  0  0  0 
  5  4  1  0  0  0  0 
  5 25  1  0  0  0  0 
  6 26  1  0  0  0  0 
  6  5  1  0  0  0  0 
  7  6  1  0  0  0  0 
  7 29  1  0  0  0  0 
  8  9  1  0  0  0  0 
  8 12  1  0  0  0  0 
  9 32  1  0  0  0  0 
  9  2  1  0  0  0  0 
 10  7  1  0  0  0  0 
 11 10  2  0  0  0  0 
 12 10  1  0  0  0  0 
 15  1  1  0  0  0  0 
 17  2  1  0  0  0  0 
 20  3  1  0  0  0  0 
 21  3  1  0  0  0  0 
 23  4  1  0  0  0  0 
 24  5  1  0  0  0  0 
 27  6  1  0  0  0  0 
 28  7  1  0  0  0  0 
 30  8  1  0  0  0  0 
 31  8  1  0  0  0  0 
M  END 
>  <HBA> 
2 
 
>  <HBD> 
0 
 
>  <TPSA> 
26.3 
 
>  <cid> 
7775 
 
>  <dipole> 
1.44 
 
>  <excitation_energy_1> 
5.832 
 
>  <excitation_energy_2> 
6.973 
 
>  <excitation_energy_3> 
7.372 
 
>  <excitation_energy_4> 
7.437 
 
>  <homo_energy> 
-7.263 
 
>  <homo_lumo_gap> 
7.728 
 
>  <logP> 
2.766 
 
>  <lumo_energy> 
0.465 
 
>  <melting_point> 
-16.78 
 
>  <molecular_refractivity> 
51.47 
 
>  <oscillator_strength_1> 
0.0006 
 
>  <oscillator_strength_2> 
0.0134 
 
>  <oscillator_strength_3> 
0.0439 
 
>  <oscillator_strength_4> 
0.0373 
 
>  <open_babel_can_smiles> 
CCCCCC(=O)OCC(C)C 
 
>  <mulliken_charges> 
32 
1   -0.441959 
2   -0.442605 
3   -0.452009 
4   -0.247613 
5   -0.250137 
6   -0.24839 
7   -0.36471 
8   -0.037904 
9   -0.096626 
10   0.625318 
11   -0.480841 
12   -0.472633 
13   0.143012 
14   0.141113 
15   0.141228 
16   0.143114 
17   0.137136 
18   0.153529 
19   0.149257 
20   0.150445 
21   0.139959 
22   0.132887 
23   0.13335 
24   0.126564 
25   0.126198 
26   0.145752 
27   0.14989 
28   0.169951 
29   0.167964 
30   0.142816 
31   0.164737 
32   0.15121 
 
>  <lowdin_charges> 
32 
1   -0.443525 
2   -0.445715 
3   -0.44296 
4   -0.272541 
5   -0.275999 
6   -0.271396 
7   -0.303973 
8   -0.134714 
9   -0.131985 
10   0.2013 
11   -0.268671 
12   -0.198647 
13   0.148885 
14   0.14588 
15   0.146616 
16   0.149593 
17   0.143774 
18   0.154554 
19   0.153291 
20   0.153148 
21   0.145305 
22   0.14106 
23   0.140639 
24   0.137779 
25   0.136997 
26   0.149662 
27   0.151152 
28   0.168372 
29   0.166548 
30   0.147459 
31   0.158348 
32   0.149764 
 
$$$$ 
 
