PCCDB-ID:  43559 
public computational chemistry database (PCCDB) project, http://pccdb.org 
 
 24 24  0  0  0  0  0  0  0  0999 V2000 
    1.1938   -0.3427    0.0454 C   0  0  0  0  0  0  0  0  0  0  0  0 
    2.7828    3.8100    2.5268 C   0  0  0  0  0  0  0  0  0  0  0  0 
    3.4641    4.7234    3.3252 C   0  0  0  0  0  0  0  0  0  0  0  0 
    4.2374    2.0558    3.3045 C   0  0  0  0  0  0  0  0  0  0  0  0 
    6.0605    2.4814    4.9335 C   0  0  0  0  0  0  0  0  0  0  0  0 
    0.6646    0.9990    0.4841 C   0  0  0  0  0  0  0  0  0  0  0  0 
    4.9338    2.9672    4.1099 C   0  0  0  0  0  0  0  0  0  0  0  0 
    3.1653    2.4575    2.5096 C   0  0  0  0  0  0  0  0  0  0  0  0 
    4.5417    4.3194    4.1190 C   0  0  0  0  0  0  0  0  0  0  0  0 
    1.2643    1.8541    1.2176 N   0  0  0  0  0  0  0  0  0  0  0  0 
    2.5344    1.5227    1.6680 N   0  0  0  0  0  0  0  0  0  0  0  0 
    6.4292    1.3179    4.9590 O   0  0  0  0  0  0  0  0  0  0  0  0 
   -0.5983    1.3458    0.0913 O   0  0  0  0  0  0  0  0  0  0  0  0 
    5.2346    5.1937    4.9139 O   0  0  0  0  0  0  0  0  0  0  0  0 
    2.2798   -0.2932   -0.0833 H   0  0  0  0  0  0  0  0  0  0  0  0 
    0.7546   -0.6499   -0.9105 H   0  0  0  0  0  0  0  0  0  0  0  0 
    0.9704   -1.1292    0.7789 H   0  0  0  0  0  0  0  0  0  0  0  0 
    1.9443    4.1258    1.9180 H   0  0  0  0  0  0  0  0  0  0  0  0 
    3.1523    5.7666    3.3301 H   0  0  0  0  0  0  0  0  0  0  0  0 
    4.5708    1.0211    3.3253 H   0  0  0  0  0  0  0  0  0  0  0  0 
    6.5703    3.2478    5.5464 H   0  0  0  0  0  0  0  0  0  0  0  0 
    2.6555    0.5628    1.9789 H   0  0  0  0  0  0  0  0  0  0  0  0 
   -0.9288    0.6775   -0.5261 H   0  0  0  0  0  0  0  0  0  0  0  0 
    4.8471    6.0772    4.8177 H   0  0  0  0  0  0  0  0  0  0  0  0 
  1  6  1  0  0  0  0 
  1 17  1  0  0  0  0 
  2  3  1  0  0  0  0 
  3 19  1  0  0  0  0 
  3  9  2  0  0  0  0 
  4 20  1  0  0  0  0 
  4  7  2  0  0  0  0 
  5 12  2  0  0  0  0 
  5 21  1  0  0  0  0 
  6 10  2  0  0  0  0 
  7  9  1  0  0  0  0 
  7  5  1  0  0  0  0 
  8  2  2  0  0  0  0 
  8  4  1  0  0  0  0 
  9 14  1  0  0  0  0 
 10 11  1  0  0  0  0 
 11 22  1  0  0  0  0 
 11  8  1  0  0  0  0 
 13  6  1  0  0  0  0 
 15  1  1  0  0  0  0 
 16  1  1  0  0  0  0 
 18  2  1  0  0  0  0 
 23 13  1  0  0  0  0 
 24 14  1  0  0  0  0 
M  END 
>  <HBA> 
5 
 
>  <HBD> 
3 
 
>  <TPSA> 
78.43 
 
>  <cid> 
43559 
 
>  <dipole> 
4.54 
 
>  <excitation_energy_1> 
3.079 
 
>  <excitation_energy_2> 
3.621 
 
>  <excitation_energy_3> 
4.205 
 
>  <excitation_energy_4> 
4.488 
 
>  <homo_energy> 
-5.07 
 
>  <homo_lumo_gap> 
3.706 
 
>  <logP> 
1.132 
 
>  <lumo_energy> 
-1.363 
 
>  <melting_point> 
161.52 
 
>  <molecular_refractivity> 
50.97 
 
>  <oscillator_strength_1> 
0.0409 
 
>  <oscillator_strength_2> 
0.0002 
 
>  <oscillator_strength_3> 
0.0094 
 
>  <oscillator_strength_4> 
0.0002 
 
>  <open_babel_can_smiles> 
O=Cc1cc(N/N=C(/O)\C)ccc1O 
 
>  <mulliken_charges> 
24 
1   -0.564955 
2   -0.14706 
3   -0.2017 
4   -0.249244 
5   0.195514 
6   0.496532 
7   0.055226 
8   0.360893 
9   0.294502 
10   -0.286629 
11   -0.553318 
12   -0.423173 
13   -0.581383 
14   -0.647361 
15   0.196803 
16   0.160202 
17   0.186915 
18   0.168317 
19   0.123891 
20   0.14971 
21   0.128362 
22   0.3182 
23   0.407617 
24   0.412136 
 
>  <lowdin_charges> 
24 
1   -0.480441 
2   -0.152179 
3   -0.202845 
4   -0.158284 
5   0.045156 
6   0.102891 
7   -0.078648 
8   0.037554 
9   0.095007 
10   -0.137598 
11   -0.219864 
12   -0.244863 
13   -0.368878 
14   -0.378577 
15   0.177484 
16   0.164499 
17   0.174679 
18   0.180913 
19   0.154756 
20   0.169478 
21   0.135151 
22   0.265504 
23   0.358297 
24   0.360807 
 
$$$$ 
 
