PCCDB-ID:  46656 
public computational chemistry database (PCCDB) project, http://pccdb.org 
 
 16 15  0  0  0  0  0  0  0  0999 V2000 
    1.0689   -0.1658   -0.4898 C   0  0  0  0  0  0  0  0  0  0  0  0 
    4.6383   -0.7859   -0.4080 C   0  0  0  0  0  0  0  0  0  0  0  0 
    0.2949    0.4682    0.6768 C   0  0  0  0  0  0  0  0  0  0  0  0 
    5.4218   -1.4007   -1.5783 C   0  0  0  0  0  0  0  0  0  0  0  0 
    2.3973   -0.5972   -0.0467 N   0  0  0  0  0  0  0  0  0  0  0  0 
    3.3095   -0.3559   -0.8518 N   0  0  0  0  0  0  0  0  0  0  0  0 
   -0.6718    1.1611    0.4989 O   0  0  0  0  0  0  0  0  0  0  0  0 
    0.7547    0.1559    1.9031 O   0  0  0  0  0  0  0  0  0  0  0  0 
    6.3966   -2.0832   -1.4040 O   0  0  0  0  0  0  0  0  0  0  0  0 
    4.9601   -1.0849   -2.8030 O   0  0  0  0  0  0  0  0  0  0  0  0 
    1.1019    0.5185   -1.3423 H   0  0  0  0  0  0  0  0  0  0  0  0 
    0.5179   -1.0705   -0.7827 H   0  0  0  0  0  0  0  0  0  0  0  0 
    5.1831    0.1174   -0.0994 H   0  0  0  0  0  0  0  0  0  0  0  0 
    4.6047   -1.4814    0.4353 H   0  0  0  0  0  0  0  0  0  0  0  0 
    1.5638   -0.3865    1.8023 H   0  0  0  0  0  0  0  0  0  0  0  0 
    4.1450   -0.5520   -2.6992 H   0  0  0  0  0  0  0  0  0  0  0  0 
  1  5  1  0  0  0  0 
  1  3  1  0  0  0  0 
  2 13  1  0  0  0  0 
  2 14  1  0  0  0  0 
  3  8  1  0  0  0  0 
  4  9  2  0  0  0  0 
  4  2  1  0  0  0  0 
  6  2  1  0  0  0  0 
  6  5  1  0  0  0  0 
  7  3  2  0  0  0  0 
 10 16  1  0  0  0  0 
 10  4  1  0  0  0  0 
 11  1  1  0  0  0  0 
 12  1  1  0  0  0  0 
 15  8  1  0  0  0  0 
M  RAD  2   5   2   6   2 
M  END 
>  <HBA> 
6 
 
>  <HBD> 
2 
 
>  <TPSA> 
99.32 
 
>  <cid> 
46656 
 
>  <dipole> 
0.06 
 
>  <excitation_energy_1> 
3.432 
 
>  <excitation_energy_2> 
4.47 
 
>  <excitation_energy_3> 
4.511 
 
>  <excitation_energy_4> 
5.48 
 
>  <homo_energy> 
-7.81 
 
>  <homo_lumo_gap> 
5.056 
 
>  <logP> 
-0.392 
 
>  <lumo_energy> 
-2.754 
 
>  <melting_point> 
144.61 
 
>  <molecular_refractivity> 
29.74 
 
>  <oscillator_strength_1> 
0.0 
 
>  <oscillator_strength_2> 
0.1127 
 
>  <oscillator_strength_3> 
0.0016 
 
>  <oscillator_strength_4> 
0.0221 
 
>  <open_babel_can_smiles> 
OC(=O)C[N][N]CC(=O)O 
 
>  <mulliken_charges> 
16 
1   -0.247114 
2   -0.247055 
3   0.597559 
4   0.59751 
5   -0.205253 
6   -0.205884 
7   -0.430558 
8   -0.559825 
9   -0.430994 
10   -0.559979 
11   0.201299 
12   0.219377 
13   0.219639 
14   0.201614 
15   0.424804 
16   0.42486 
 
>  <lowdin_charges> 
16 
1   -0.258599 
2   -0.258801 
3   0.184118 
4   0.183947 
5   -0.087217 
6   -0.087302 
7   -0.225239 
8   -0.343175 
9   -0.225644 
10   -0.343154 
11   0.17955 
12   0.195787 
13   0.195988 
14   0.179807 
15   0.355023 
16   0.354909 
 
$$$$ 
 
