PCCDB-ID:  6874 
public computational chemistry database (PCCDB) project, http://pccdb.org 
 
 31 31  0  0  0  0  0  0  0  0999 V2000 
    0.3702    1.2488    0.5301 C   0  0  0  0  0  0  0  0  0  0  0  0 
    1.2677   -1.0218    1.1783 C   0  0  0  0  0  0  0  0  0  0  0  0 
    7.1043    1.0390    6.0686 C   0  0  0  0  0  0  0  0  0  0  0  0 
    6.1908    1.8748    6.7155 C   0  0  0  0  0  0  0  0  0  0  0  0 
    6.8069    0.5741    4.7941 C   0  0  0  0  0  0  0  0  0  0  0  0 
    5.0033    2.2300    6.0854 C   0  0  0  0  0  0  0  0  0  0  0  0 
    2.8341    0.7832    0.2634 C   0  0  0  0  0  0  0  0  0  0  0  0 
    4.1330    0.2011    0.8030 C   0  0  0  0  0  0  0  0  0  0  0  0 
    1.5729    0.4814    1.0982 C   0  0  0  0  0  0  0  0  0  0  0  0 
    5.6174    0.9197    4.1306 C   0  0  0  0  0  0  0  0  0  0  0  0 
    4.7004    1.7630    4.7975 C   0  0  0  0  0  0  0  0  0  0  0  0 
    5.4494    0.3362    2.7648 C   0  0  0  0  0  0  0  0  0  0  0  0 
    3.5290    2.1174    4.1998 O   0  0  0  0  0  0  0  0  0  0  0  0 
    6.2472   -0.4430    2.2736 O   0  0  0  0  0  0  0  0  0  0  0  0 
    4.3438    0.7522    2.1220 O   0  0  0  0  0  0  0  0  0  0  0  0 
   -0.5287    1.0812    1.1353 H   0  0  0  0  0  0  0  0  0  0  0  0 
    0.1432    0.9264   -0.4951 H   0  0  0  0  0  0  0  0  0  0  0  0 
    0.5603    2.3286    0.5040 H   0  0  0  0  0  0  0  0  0  0  0  0 
    0.3567   -1.2033    1.7609 H   0  0  0  0  0  0  0  0  0  0  0  0 
    2.0773   -1.5832    1.6574 H   0  0  0  0  0  0  0  0  0  0  0  0 
    1.1102   -1.4469    0.1778 H   0  0  0  0  0  0  0  0  0  0  0  0 
    8.0328    0.7542    6.5534 H   0  0  0  0  0  0  0  0  0  0  0  0 
    6.3988    2.2509    7.7137 H   0  0  0  0  0  0  0  0  0  0  0  0 
    7.4921   -0.0781    4.2634 H   0  0  0  0  0  0  0  0  0  0  0  0 
    4.2913    2.8808    6.5908 H   0  0  0  0  0  0  0  0  0  0  0  0 
    2.6993    0.3995   -0.7589 H   0  0  0  0  0  0  0  0  0  0  0  0 
    2.9546    1.8711    0.1767 H   0  0  0  0  0  0  0  0  0  0  0  0 
    4.9848    0.4675    0.1685 H   0  0  0  0  0  0  0  0  0  0  0  0 
    4.1102   -0.8905    0.8761 H   0  0  0  0  0  0  0  0  0  0  0  0 
    1.7624    0.8475    2.1157 H   0  0  0  0  0  0  0  0  0  0  0  0 
    3.0352    2.6823    4.8156 H   0  0  0  0  0  0  0  0  0  0  0  0 
  1  9  1  0  0  0  0 
  1 16  1  0  0  0  0 
  2 20  1  0  0  0  0 
  2 19  1  0  0  0  0 
  3 22  1  0  0  0  0 
  3  4  2  0  0  0  0 
  4 23  1  0  0  0  0 
  5  3  1  0  0  0  0 
  6 25  1  0  0  0  0 
  6  4  1  0  0  0  0 
  7  8  1  0  0  0  0 
  7  9  1  0  0  0  0 
  8 29  1  0  0  0  0 
  8 15  1  0  0  0  0 
  9  2  1  0  0  0  0 
  9 30  1  0  0  0  0 
 10  5  2  0  0  0  0 
 10 11  1  0  0  0  0 
 11  6  2  0  0  0  0 
 12 10  1  0  0  0  0 
 13 11  1  0  0  0  0 
 13 31  1  0  0  0  0 
 14 12  2  0  0  0  0 
 15 12  1  0  0  0  0 
 17  1  1  0  0  0  0 
 18  1  1  0  0  0  0 
 21  2  1  0  0  0  0 
 24  5  1  0  0  0  0 
 26  7  1  0  0  0  0 
 27  7  1  0  0  0  0 
 28  8  1  0  0  0  0 
M  END 
>  <HBA> 
3 
 
>  <HBD> 
1 
 
>  <TPSA> 
46.53 
 
>  <cid> 
6874 
 
>  <dipole> 
3.41 
 
>  <excitation_energy_1> 
4.536 
 
>  <excitation_energy_2> 
4.863 
 
>  <excitation_energy_3> 
5.381 
 
>  <excitation_energy_4> 
5.423 
 
>  <homo_energy> 
-6.283 
 
>  <homo_lumo_gap> 
5.246 
 
>  <logP> 
2.595 
 
>  <lumo_energy> 
-1.037 
 
>  <melting_point> 
67.58 
 
>  <molecular_refractivity> 
58.97 
 
>  <oscillator_strength_1> 
0.0766 
 
>  <oscillator_strength_2> 
0.0007 
 
>  <oscillator_strength_3> 
0.0019 
 
>  <oscillator_strength_4> 
0.1358 
 
>  <open_babel_can_smiles> 
CC(CCOC(=O)c1ccccc1O)C 
 
>  <mulliken_charges> 
31 
1   -0.443366 
2   -0.450569 
3   -0.139796 
4   -0.122448 
5   -0.167453 
6   -0.198402 
7   -0.275472 
8   -0.043499 
9   -0.071906 
10   0.029944 
11   0.302582 
12   0.608863 
13   -0.617852 
14   -0.501389 
15   -0.462436 
16   0.138574 
17   0.136356 
18   0.139172 
19   0.140726 
20   0.148289 
21   0.135559 
22   0.135025 
23   0.137922 
24   0.168612 
25   0.121317 
26   0.131051 
27   0.142783 
28   0.155943 
29   0.158695 
30   0.154326 
31   0.408848 
 
>  <lowdin_charges> 
31 
1   -0.441179 
2   -0.448671 
3   -0.180108 
4   -0.12876 
5   -0.119854 
6   -0.217009 
7   -0.279905 
8   -0.124211 
9   -0.124064 
10   -0.078635 
11   0.117937 
12   0.19788 
13   -0.357529 
14   -0.282342 
15   -0.176858 
16   0.147409 
17   0.142853 
18   0.145091 
19   0.149438 
20   0.151154 
21   0.142968 
22   0.161962 
23   0.16145 
24   0.182053 
25   0.155652 
26   0.144963 
27   0.147526 
28   0.153693 
29   0.14861 
30   0.149462 
31   0.359024 
 
$$$$ 
 
