PCCDB-ID:  11872 
public computational chemistry database (PCCDB) project, http://pccdb.org 
 
 20 20  0  0  0  0  0  0  0  0999 V2000 
    1.0372   -0.0713    0.1852 C   0  0  0  0  0  0  0  0  0  0  0  0 
    3.1781    1.2733    0.0216 C   0  0  0  0  0  0  0  0  0  0  0  0 
    3.3527   -1.1009    0.1341 C   0  0  0  0  0  0  0  0  0  0  0  0 
    2.5411    0.0426    0.1162 C   0  0  0  0  0  0  0  0  0  0  0  0 
    4.5727    1.3652   -0.0569 C   0  0  0  0  0  0  0  0  0  0  0  0 
    4.7346   -1.0231    0.0338 C   0  0  0  0  0  0  0  0  0  0  0  0 
    5.4121    0.2177   -0.0605 C   0  0  0  0  0  0  0  0  0  0  0  0 
    5.1489    2.6970   -0.1275 N   0  0  0  0  0  0  0  0  0  0  0  0 
    5.4747   -2.2960    0.0280 N   0  0  0  0  0  0  0  0  0  0  0  0 
    6.7355    0.2687   -0.1040 O   0  0  0  0  0  0  0  0  0  0  0  0 
    4.4035    3.6676   -0.1415 O   0  0  0  0  0  0  0  0  0  0  0  0 
    6.3956    2.8038   -0.1714 O   0  0  0  0  0  0  0  0  0  0  0  0 
    4.9338   -3.2526    0.5868 O   0  0  0  0  0  0  0  0  0  0  0  0 
    6.5554   -2.3349   -0.5482 O   0  0  0  0  0  0  0  0  0  0  0  0 
    0.5782    0.8899    0.4339 H   0  0  0  0  0  0  0  0  0  0  0  0 
    0.7284   -0.8007    0.9416 H   0  0  0  0  0  0  0  0  0  0  0  0 
    0.6197   -0.4002   -0.7747 H   0  0  0  0  0  0  0  0  0  0  0  0 
    2.6119    2.1972    0.0135 H   0  0  0  0  0  0  0  0  0  0  0  0 
    2.9151   -2.0889    0.2280 H   0  0  0  0  0  0  0  0  0  0  0  0 
    6.9792    1.2299   -0.1332 H   0  0  0  0  0  0  0  0  0  0  0  0 
  1 15  1  0  0  0  0 
  1 16  1  0  0  0  0 
  2  4  2  0  0  0  0 
  3 19  1  0  0  0  0 
  4  3  1  0  0  0  0 
  4  1  1  0  0  0  0 
  5  2  1  0  0  0  0 
  6  3  2  0  0  0  0 
  7  5  2  0  0  0  0 
  7  6  1  0  0  0  0 
  8  5  1  0  0  0  0 
  9  6  1  0  0  0  0 
  9 13  2  0  0  0  0 
 10  7  1  0  0  0  0 
 11  8  2  0  0  0  0 
 12  8  2  0  0  0  0 
 14  9  2  0  0  0  0 
 17  1  1  0  0  0  0 
 18  2  1  0  0  0  0 
 20 10  1  0  0  0  0 
M  END 
>  <HBA> 
1 
 
>  <HBD> 
1 
 
>  <TPSA> 
111.87 
 
>  <cid> 
11872 
 
>  <dipole> 
4.58 
 
>  <excitation_energy_1> 
3.345 
 
>  <excitation_energy_2> 
3.665 
 
>  <excitation_energy_3> 
3.849 
 
>  <excitation_energy_4> 
4.048 
 
>  <homo_energy> 
-7.263 
 
>  <homo_lumo_gap> 
3.989 
 
>  <logP> 
2.563 
 
>  <lumo_energy> 
-3.274 
 
>  <melting_point> 
127.72 
 
>  <molecular_refractivity> 
51.08 
 
>  <oscillator_strength_1> 
0.0992 
 
>  <oscillator_strength_2> 
0.0023 
 
>  <oscillator_strength_3> 
0.0019 
 
>  <oscillator_strength_4> 
0.0194 
 
>  <open_babel_can_smiles> 
Cc1cc(N(=O)=O)c(c(c1)N(=O)=O)O 
 
>  <mulliken_charges> 
20 
1   -0.531885 
2   -0.21105 
3   -0.188964 
4   0.164109 
5   0.24633 
6   0.242987 
7   0.317559 
8   0.394686 
9   0.364804 
10   -0.599089 
11   -0.375477 
12   -0.445375 
13   -0.38865 
14   -0.356672 
15   0.170989 
16   0.175995 
17   0.180629 
18   0.191484 
19   0.191041 
20   0.45655 
 
>  <lowdin_charges> 
20 
1   -0.440219 
2   -0.123051 
3   -0.108088 
4   -0.008781 
5   -0.048028 
6   -0.020422 
7   0.13157 
8   0.318654 
9   0.308057 
10   -0.314751 
11   -0.218507 
12   -0.27563 
13   -0.250487 
14   -0.213431 
15   0.166209 
16   0.169888 
17   0.17051 
18   0.192345 
19   0.192157 
20   0.372004 
 
$$$$ 
 
