PCCDB-ID:  11304 
public computational chemistry database (PCCDB) project, http://pccdb.org 
 
 24 25  0  0  0  0  0  0  0  0999 V2000 
    0.9065   -0.0095   -0.0699 C   0  0  0  0  0  0  0  0  0  0  0  0 
    6.7891   -0.1403   -0.1318 C   0  0  0  0  0  0  0  0  0  0  0  0 
    3.2254    3.6614   -0.1043 C   0  0  0  0  0  0  0  0  0  0  0  0 
    4.6365    3.6300   -0.1189 C   0  0  0  0  0  0  0  0  0  0  0  0 
    2.5091    2.4842   -0.0941 C   0  0  0  0  0  0  0  0  0  0  0  0 
    5.2995    2.4219   -0.1232 C   0  0  0  0  0  0  0  0  0  0  0  0 
    3.1157   -1.1956   -0.0897 C   0  0  0  0  0  0  0  0  0  0  0  0 
    4.5293   -1.2270   -0.1047 C   0  0  0  0  0  0  0  0  0  0  0  0 
    2.4167   -0.0083   -0.0866 C   0  0  0  0  0  0  0  0  0  0  0  0 
    5.2805   -0.0722   -0.1166 C   0  0  0  0  0  0  0  0  0  0  0  0 
    3.1580    1.2196   -0.0980 C   0  0  0  0  0  0  0  0  0  0  0  0 
    4.5946    1.1876   -0.1131 C   0  0  0  0  0  0  0  0  0  0  0  0 
    0.5222   -1.0338   -0.0759 H   0  0  0  0  0  0  0  0  0  0  0  0 
    0.4867    0.5082   -0.9418 H   0  0  0  0  0  0  0  0  0  0  0  0 
    0.5068    0.4903    0.8219 H   0  0  0  0  0  0  0  0  0  0  0  0 
    7.1277   -1.1806   -0.1454 H   0  0  0  0  0  0  0  0  0  0  0  0 
    7.2295    0.3409    0.7509 H   0  0  0  0  0  0  0  0  0  0  0  0 
    7.2128    0.3587   -1.0127 H   0  0  0  0  0  0  0  0  0  0  0  0 
    2.7039    4.6149   -0.1007 H   0  0  0  0  0  0  0  0  0  0  0  0 
    5.2000    4.5593   -0.1267 H   0  0  0  0  0  0  0  0  0  0  0  0 
    1.4245    2.5217   -0.0817 H   0  0  0  0  0  0  0  0  0  0  0  0 
    6.3846    2.4104   -0.1335 H   0  0  0  0  0  0  0  0  0  0  0  0 
    2.5694   -2.1360   -0.0814 H   0  0  0  0  0  0  0  0  0  0  0  0 
    5.0332   -2.1910   -0.1074 H   0  0  0  0  0  0  0  0  0  0  0  0 
  1 15  1  0  0  0  0 
  2 10  1  0  0  0  0 
  2 17  1  0  0  0  0 
  3 19  1  0  0  0  0 
  3  5  2  0  0  0  0 
  4  3  1  0  0  0  0 
  5 21  1  0  0  0  0 
  6  4  2  0  0  0  0 
  6 12  1  0  0  0  0 
  7  9  1  0  0  0  0 
  7 23  1  0  0  0  0 
  8  7  2  0  0  0  0 
  9  1  1  0  0  0  0 
 10 12  2  0  0  0  0 
 10  8  1  0  0  0  0 
 11  5  1  0  0  0  0 
 11  9  2  0  0  0  0 
 12 11  1  0  0  0  0 
 13  1  1  0  0  0  0 
 14  1  1  0  0  0  0 
 16  2  1  0  0  0  0 
 18  2  1  0  0  0  0 
 20  4  1  0  0  0  0 
 22  6  1  0  0  0  0 
 24  8  1  0  0  0  0 
M  END 
>  <HBA> 
0 
 
>  <HBD> 
0 
 
>  <TPSA> 
0.0 
 
>  <cid> 
11304 
 
>  <dipole> 
0.03 
 
>  <excitation_energy_1> 
4.166 
 
>  <excitation_energy_2> 
4.364 
 
>  <excitation_energy_3> 
5.261 
 
>  <excitation_energy_4> 
5.492 
 
>  <homo_energy> 
-5.562 
 
>  <homo_lumo_gap> 
4.672 
 
>  <logP> 
3.457 
 
>  <lumo_energy> 
-0.89 
 
>  <melting_point> 
57.33 
 
>  <molecular_refractivity> 
53.88 
 
>  <oscillator_strength_1> 
0.1075 
 
>  <oscillator_strength_2> 
0.001 
 
>  <oscillator_strength_3> 
0.0 
 
>  <oscillator_strength_4> 
0.0 
 
>  <open_babel_can_smiles> 
Cc1ccc(c2c1cccc2)C 
 
>  <mulliken_charges> 
24 
1   -0.536528 
2   -0.536552 
3   -0.130959 
4   -0.131157 
5   -0.201312 
6   -0.201538 
7   -0.199246 
8   -0.199385 
9   0.138241 
10   0.138471 
11   0.07849 
12   0.078736 
13   0.15535 
14   0.161202 
15   0.161414 
16   0.155305 
17   0.161405 
18   0.161205 
19   0.126793 
20   0.12684 
21   0.127504 
22   0.127607 
23   0.119056 
24   0.119057 
 
>  <lowdin_charges> 
24 
1   -0.443918 
2   -0.443728 
3   -0.158969 
4   -0.159293 
5   -0.159139 
6   -0.159164 
7   -0.171194 
8   -0.170874 
9   -0.003194 
10   -0.00315 
11   -0.007464 
12   -0.007481 
13   0.15707 
14   0.159438 
15   0.159436 
16   0.156805 
17   0.159504 
18   0.159384 
19   0.157005 
20   0.157265 
21   0.157075 
22   0.157107 
23   0.153868 
24   0.153612 
 
$$$$ 
 
