PCCDB-ID:  7096 
public computational chemistry database (PCCDB) project, http://pccdb.org 
 
 26 27  0  0  0  0  0  0  0  0999 V2000 
   -1.3317    0.2203   -0.5498 C   0  0  0  0  0  0  0  0  0  0  0  0 
   -0.5689    1.3694   -0.7481 C   0  0  0  0  0  0  0  0  0  0  0  0 
   -0.6783   -0.9544   -0.1684 C   0  0  0  0  0  0  0  0  0  0  0  0 
    0.8168    1.3518   -0.5850 C   0  0  0  0  0  0  0  0  0  0  0  0 
    0.7002   -0.9797    0.0143 C   0  0  0  0  0  0  0  0  0  0  0  0 
    4.3079   -0.7175   -1.7921 C   0  0  0  0  0  0  0  0  0  0  0  0 
    4.3143    1.6548   -1.3018 C   0  0  0  0  0  0  0  0  0  0  0  0 
    3.6699   -1.0077   -0.4261 C   0  0  0  0  0  0  0  0  0  0  0  0 
    3.6739    1.3535    0.0597 C   0  0  0  0  0  0  0  0  0  0  0  0 
    1.4878    0.1740   -0.1966 C   0  0  0  0  0  0  0  0  0  0  0  0 
    5.1235    0.4962   -1.6937 N   0  0  0  0  0  0  0  0  0  0  0  0 
    2.8726    0.1317    0.0395 N   0  0  0  0  0  0  0  0  0  0  0  0 
   -2.4090    0.2376   -0.6855 H   0  0  0  0  0  0  0  0  0  0  0  0 
   -1.0493    2.2966   -1.0516 H   0  0  0  0  0  0  0  0  0  0  0  0 
   -1.2497   -1.8627    0.0078 H   0  0  0  0  0  0  0  0  0  0  0  0 
    1.3743    2.2600   -0.7844 H   0  0  0  0  0  0  0  0  0  0  0  0 
    1.1690   -1.8962    0.3581 H   0  0  0  0  0  0  0  0  0  0  0  0 
    3.5008   -0.6354   -2.5455 H   0  0  0  0  0  0  0  0  0  0  0  0 
    4.9550   -1.5539   -2.0831 H   0  0  0  0  0  0  0  0  0  0  0  0 
    4.9698    2.5303   -1.2193 H   0  0  0  0  0  0  0  0  0  0  0  0 
    3.5216    1.8935   -2.0361 H   0  0  0  0  0  0  0  0  0  0  0  0 
    4.4665   -1.1978    0.3055 H   0  0  0  0  0  0  0  0  0  0  0  0 
    3.0481   -1.9012   -0.4886 H   0  0  0  0  0  0  0  0  0  0  0  0 
    3.0664    2.1889    0.4134 H   0  0  0  0  0  0  0  0  0  0  0  0 
    4.4835    1.2032    0.7870 H   0  0  0  0  0  0  0  0  0  0  0  0 
    5.5761    0.6788   -2.5867 H   0  0  0  0  0  0  0  0  0  0  0  0 
  1  3  2  0  0  0  0 
  2  4  2  0  0  0  0 
  2  1  1  0  0  0  0 
  3 15  1  0  0  0  0 
  3  5  1  0  0  0  0 
  4 10  1  0  0  0  0 
  5 17  1  0  0  0  0 
  6 11  1  0  0  0  0 
  6  8  1  0  0  0  0 
  7 20  1  0  0  0  0 
  7  9  1  0  0  0  0 
  8 12  1  0  0  0  0 
  8 22  1  0  0  0  0 
  9 24  1  0  0  0  0 
  9 25  1  0  0  0  0 
 10  5  2  0  0  0  0 
 10 12  1  0  0  0  0 
 11  7  1  0  0  0  0 
 12  9  1  0  0  0  0 
 13  1  1  0  0  0  0 
 14  2  1  0  0  0  0 
 16  4  1  0  0  0  0 
 18  6  1  0  0  0  0 
 19  6  1  0  0  0  0 
 21  7  1  0  0  0  0 
 23  8  1  0  0  0  0 
 26 11  1  0  0  0  0 
M  END 
>  <HBA> 
2 
 
>  <HBD> 
1 
 
>  <TPSA> 
15.27 
 
>  <cid> 
7096 
 
>  <dipole> 
1.62 
 
>  <excitation_energy_1> 
4.315 
 
>  <excitation_energy_2> 
4.477 
 
>  <excitation_energy_3> 
4.771 
 
>  <excitation_energy_4> 
4.956 
 
>  <homo_energy> 
-4.961 
 
>  <homo_lumo_gap> 
5.225 
 
>  <logP> 
1.49 
 
>  <lumo_energy> 
0.264 
 
>  <melting_point> 
61.09 
 
>  <molecular_refractivity> 
57.8 
 
>  <oscillator_strength_1> 
0.0244 
 
>  <oscillator_strength_2> 
0.0485 
 
>  <oscillator_strength_3> 
0.043 
 
>  <oscillator_strength_4> 
0.0334 
 
>  <open_babel_can_smiles> 
N1CCN(CC1)c1ccccc1 
 
>  <mulliken_charges> 
26 
1   -0.137373 
2   -0.137669 
3   -0.134608 
4   -0.191572 
5   -0.180291 
6   -0.132123 
7   -0.137346 
8   -0.145377 
9   -0.14156 
10   0.337444 
11   -0.551753 
12   -0.485406 
13   0.11894 
14   0.122027 
15   0.122529 
16   0.120768 
17   0.125486 
18   0.123591 
19   0.137455 
20   0.137784 
21   0.123452 
22   0.149527 
23   0.151149 
24   0.153227 
25   0.152501 
26   0.299196 
 
>  <lowdin_charges> 
26 
1   -0.185431 
2   -0.149206 
3   -0.149966 
4   -0.211799 
5   -0.198049 
6   -0.217517 
7   -0.219259 
8   -0.2012 
9   -0.206454 
10   0.058774 
11   -0.369574 
12   -0.134041 
13   0.151928 
14   0.154377 
15   0.154919 
16   0.154795 
17   0.155766 
18   0.123392 
19   0.148381 
20   0.147779 
21   0.122901 
22   0.148094 
23   0.157012 
24   0.15763 
25   0.15127 
26   0.25548 
 
$$$$ 
 
