PCCDB-ID:  20083 
public computational chemistry database (PCCDB) project, http://pccdb.org 
 
 27 26  0  0  1  0  0  0  0  0999 V2000 
    4.8276   -2.5838   -0.5202 C   0  0  0  0  0  0  0  0  0  0  0  0 
    4.1806    4.6942    0.9325 C   0  0  0  0  0  0  0  0  0  0  0  0 
    5.4449   -1.2786   -0.0070 C   0  0  0  0  0  0  0  0  0  0  0  0 
    4.8884   -0.8556    1.3605 C   0  0  0  0  0  0  0  0  0  0  0  0 
    5.5196    0.4127    1.9579 C   0  0  0  0  0  0  0  0  0  0  0  0 
    5.2278    1.7051    1.1808 C   0  0  0  0  0  0  0  0  0  0  0  0 
    5.8036    2.9475    1.8727 C   0  0  0  0  0  0  0  0  0  0  0  0 
    5.6372    4.2533    1.0921 C   0  0  2  0  0  0  0  0  0  0  0  0 
    6.3854    5.2358    1.8167 O   0  0  0  0  0  0  0  0  0  0  0  0 
    5.2408   -2.8688   -1.4948 H   0  0  0  0  0  0  0  0  0  0  0  0 
    3.7406   -2.4893   -0.6347 H   0  0  0  0  0  0  0  0  0  0  0  0 
    5.0149   -3.4108    0.1759 H   0  0  0  0  0  0  0  0  0  0  0  0 
    3.5968    3.9674    0.3571 H   0  0  0  0  0  0  0  0  0  0  0  0 
    4.1213    5.6537    0.4017 H   0  0  0  0  0  0  0  0  0  0  0  0 
    3.7117    4.8209    1.9153 H   0  0  0  0  0  0  0  0  0  0  0  0 
    5.2729   -0.4840   -0.7452 H   0  0  0  0  0  0  0  0  0  0  0  0 
    6.5358   -1.3937    0.0691 H   0  0  0  0  0  0  0  0  0  0  0  0 
    5.0340   -1.6850    2.0675 H   0  0  0  0  0  0  0  0  0  0  0  0 
    3.7999   -0.7148    1.2793 H   0  0  0  0  0  0  0  0  0  0  0  0 
    6.6084    0.2753    2.0351 H   0  0  0  0  0  0  0  0  0  0  0  0 
    5.1570    0.5342    2.9883 H   0  0  0  0  0  0  0  0  0  0  0  0 
    4.1399    1.8090    1.0622 H   0  0  0  0  0  0  0  0  0  0  0  0 
    5.6421    1.6316    0.1657 H   0  0  0  0  0  0  0  0  0  0  0  0 
    6.8787    2.8069    2.0447 H   0  0  0  0  0  0  0  0  0  0  0  0 
    5.3462    3.0756    2.8636 H   0  0  0  0  0  0  0  0  0  0  0  0 
    6.0788    4.1172    0.0888 H   0  0  0  0  0  0  0  0  0  0  0  0 
    6.2849    6.0813    1.3524 H   0  0  0  0  0  0  0  0  0  0  0  0 
  1  3  1  0  0  0  0 
  1 12  1  0  0  0  0 
  2  8  1  0  0  0  0 
  2 15  1  0  0  0  0 
  3 17  1  0  0  0  0 
  3  4  1  0  0  0  0 
  4  5  1  0  0  0  0 
  4 18  1  0  0  0  0 
  5 20  1  0  0  0  0 
  5 21  1  0  0  0  0 
  6  7  1  0  0  0  0 
  6  5  1  0  0  0  0 
  7 24  1  0  0  0  0 
  7 25  1  0  0  0  0 
  8 26  1  6  0  0  0 
  8  9  1  0  0  0  0 
  8  7  1  0  0  0  0 
 10  1  1  0  0  0  0 
 11  1  1  0  0  0  0 
 13  2  1  0  0  0  0 
 14  2  1  0  0  0  0 
 16  3  1  0  0  0  0 
 19  4  1  0  0  0  0 
 22  6  1  0  0  0  0 
 23  6  1  0  0  0  0 
 27  9  1  0  0  0  0 
M  END 
>  <HBA> 
1 
 
>  <HBD> 
1 
 
>  <TPSA> 
20.23 
 
>  <cid> 
20083 
 
>  <dipole> 
1.48 
 
>  <excitation_energy_1> 
6.395 
 
>  <excitation_energy_2> 
7.275 
 
>  <excitation_energy_3> 
7.392 
 
>  <excitation_energy_4> 
7.459 
 
>  <homo_energy> 
-7.075 
 
>  <homo_lumo_gap> 
9.135 
 
>  <logP> 
2.338 
 
>  <lumo_energy> 
2.06 
 
>  <melting_point> 
-9.27 
 
>  <molecular_refractivity> 
41.73 
 
>  <oscillator_strength_1> 
0.0082 
 
>  <oscillator_strength_2> 
0.01 
 
>  <oscillator_strength_3> 
0.0347 
 
>  <oscillator_strength_4> 
0.0046 
 
>  <open_babel_can_smiles> 
CCCCCC[C@H](O)C 
 
>  <mulliken_charges> 
27 
1   -0.441231 
2   -0.464085 
3   -0.248574 
4   -0.248437 
5   -0.254246 
6   -0.266079 
7   -0.257369 
8   0.148382 
9   -0.630425 
10   0.14095 
11   0.140874 
12   0.141305 
13   0.147384 
14   0.130571 
15   0.153998 
16   0.13412 
17   0.129721 
18   0.127088 
19   0.124861 
20   0.12869 
21   0.129263 
22   0.129954 
23   0.13245 
24   0.144614 
25   0.136106 
26   0.105907 
27   0.384209 
 
>  <lowdin_charges> 
27 
1   -0.44248 
2   -0.464072 
3   -0.273439 
4   -0.274225 
5   -0.270911 
6   -0.275602 
7   -0.27764 
8   0.003168 
9   -0.470049 
10   0.148464 
11   0.144101 
12   0.146598 
13   0.155029 
14   0.143805 
15   0.154106 
16   0.140104 
17   0.136381 
18   0.140862 
19   0.134424 
20   0.136499 
21   0.140296 
22   0.135933 
23   0.137923 
24   0.149094 
25   0.144003 
26   0.118451 
27   0.339175 
 
$$$$ 
 
