PCCDB-ID:  10421 
public computational chemistry database (PCCDB) project, http://pccdb.org 
 
 10  9  0  0  0  0  0  0  0  0999 V2000 
    0.9411    0.0869   -0.0318 C   0  0  0  0  0  0  0  0  0  0  0  0 
    4.4073    0.4698   -0.9545 C   0  0  0  0  0  0  0  0  0  0  0  0 
    2.4181    0.0619    0.0297 N   0  0  0  0  0  0  0  0  0  0  0  0 
    2.9303    0.4957   -1.0156 N   0  0  0  0  0  0  0  0  0  0  0  0 
    0.5485   -0.3002    0.9109 H   0  0  0  0  0  0  0  0  0  0  0  0 
    0.5850   -0.5332   -0.8618 H   0  0  0  0  0  0  0  0  0  0  0  0 
    0.5841    1.1109   -0.1876 H   0  0  0  0  0  0  0  0  0  0  0  0 
    4.7999    0.8638   -1.8943 H   0  0  0  0  0  0  0  0  0  0  0  0 
    4.7634   -0.5558   -0.8073 H   0  0  0  0  0  0  0  0  0  0  0  0 
    4.7643    1.0826   -0.1194 H   0  0  0  0  0  0  0  0  0  0  0  0 
  1  3  1  0  0  0  0 
  1  5  1  0  0  0  0 
  2  9  1  0  0  0  0 
  2 10  1  0  0  0  0 
  4  2  1  0  0  0  0 
  4  3  1  0  0  0  0 
  6  1  1  0  0  0  0 
  7  1  1  0  0  0  0 
  8  2  1  0  0  0  0 
M  RAD  2   3   2   4   2 
M  END 
>  <HBA> 
2 
 
>  <HBD> 
0 
 
>  <TPSA> 
24.72 
 
>  <cid> 
10421 
 
>  <dipole> 
0.0 
 
>  <excitation_energy_1> 
3.13 
 
>  <excitation_energy_2> 
6.105 
 
>  <excitation_energy_3> 
6.197 
 
>  <excitation_energy_4> 
6.724 
 
>  <homo_energy> 
-5.932 
 
>  <homo_lumo_gap> 
4.814 
 
>  <logP> 
0.698 
 
>  <lumo_energy> 
-1.118 
 
>  <melting_point> 
-8.38 
 
>  <molecular_refractivity> 
16.58 
 
>  <oscillator_strength_1> 
0.0 
 
>  <oscillator_strength_2> 
0.0 
 
>  <oscillator_strength_3> 
0.0969 
 
>  <oscillator_strength_4> 
0.0608 
 
>  <open_babel_can_smiles> 
C[N][N]C 
 
>  <mulliken_charges> 
10 
1   -0.309039 
2   -0.30905 
3   -0.184323 
4   -0.184335 
5   0.158797 
6   0.167331 
7   0.167243 
8   0.158799 
9   0.167321 
10   0.167256 
 
>  <lowdin_charges> 
10 
1   -0.384198 
2   -0.384192 
3   -0.095094 
4   -0.095102 
5   0.155493 
6   0.162762 
7   0.161042 
8   0.155522 
9   0.161111 
10   0.162657 
 
$$$$ 
 
