PCCDB-ID:  69955 
public computational chemistry database (PCCDB) project, http://pccdb.org 
 
 21 20  0  0  0  0  0  0  0  0999 V2000 
    0.9310   -2.2966    0.2249 C   0  0  0  0  0  0  0  0  0  0  0  0 
    7.6822   -4.2985   -0.3166 C   0  0  0  0  0  0  0  0  0  0  0  0 
    2.4396   -2.2769    0.3983 C   0  0  0  0  0  0  0  0  0  0  0  0 
    7.3607   -3.3510   -1.4622 C   0  0  0  0  0  0  0  0  0  0  0  0 
    4.3773   -1.3162   -0.5842 C   0  0  0  0  0  0  0  0  0  0  0  0 
    5.1503   -2.5489   -1.0588 C   0  0  0  0  0  0  0  0  0  0  0  0 
    4.6609   -3.5984   -1.4093 O   0  0  0  0  0  0  0  0  0  0  0  0 
    2.9891   -1.4683   -0.6419 O   0  0  0  0  0  0  0  0  0  0  0  0 
    6.4759   -2.2856   -1.0335 O   0  0  0  0  0  0  0  0  0  0  0  0 
    0.4660   -2.9046    1.0088 H   0  0  0  0  0  0  0  0  0  0  0  0 
    0.6661   -2.7226   -0.7479 H   0  0  0  0  0  0  0  0  0  0  0  0 
    0.5214   -1.2827    0.2805 H   0  0  0  0  0  0  0  0  0  0  0  0 
    8.4123   -5.0464   -0.6471 H   0  0  0  0  0  0  0  0  0  0  0  0 
    6.7813   -4.8228    0.0144 H   0  0  0  0  0  0  0  0  0  0  0  0 
    8.1085   -3.7537    0.5321 H   0  0  0  0  0  0  0  0  0  0  0  0 
    2.8498   -3.2929    0.3437 H   0  0  0  0  0  0  0  0  0  0  0  0 
    2.7142   -1.8494    1.3781 H   0  0  0  0  0  0  0  0  0  0  0  0 
    6.8933   -3.8803   -2.2960 H   0  0  0  0  0  0  0  0  0  0  0  0 
    8.2547   -2.8320   -1.8166 H   0  0  0  0  0  0  0  0  0  0  0  0 
    4.6438   -0.4775   -1.2373 H   0  0  0  0  0  0  0  0  0  0  0  0 
    4.7301   -1.0598    0.4294 H   0  0  0  0  0  0  0  0  0  0  0  0 
  1 12  1  0  0  0  0 
  1  3  1  0  0  0  0 
  1 10  1  0  0  0  0 
  2 14  1  0  0  0  0 
  2 15  1  0  0  0  0 
  3 17  1  0  0  0  0 
  4  9  1  0  0  0  0 
  4  2  1  0  0  0  0 
  5 21  1  0  0  0  0 
  6  9  1  0  0  0  0 
  6  5  1  0  0  0  0 
  7  6  2  0  0  0  0 
  8  5  1  0  0  0  0 
  8  3  1  0  0  0  0 
 11  1  1  0  0  0  0 
 13  2  1  0  0  0  0 
 16  3  1  0  0  0  0 
 18  4  1  0  0  0  0 
 19  4  1  0  0  0  0 
 20  5  1  0  0  0  0 
M  END 
>  <HBA> 
3 
 
>  <HBD> 
0 
 
>  <TPSA> 
35.53 
 
>  <cid> 
69955 
 
>  <dipole> 
2.24 
 
>  <excitation_energy_1> 
5.642 
 
>  <excitation_energy_2> 
6.461 
 
>  <excitation_energy_3> 
6.53 
 
>  <excitation_energy_4> 
6.973 
 
>  <homo_energy> 
-6.841 
 
>  <homo_lumo_gap> 
7.154 
 
>  <logP> 
0.586 
 
>  <lumo_energy> 
0.313 
 
>  <melting_point> 
-23.07 
 
>  <molecular_refractivity> 
33.33 
 
>  <oscillator_strength_1> 
0.002 
 
>  <oscillator_strength_2> 
0.0161 
 
>  <oscillator_strength_3> 
0.0044 
 
>  <oscillator_strength_4> 
0.0054 
 
>  <open_babel_can_smiles> 
CCOCC(=O)OCC 
 
>  <mulliken_charges> 
21 
1   -0.454741 
2   -0.461921 
3   -0.02186 
4   -0.04471 
5   -0.105503 
6   0.594813 
7   -0.468249 
8   -0.451378 
9   -0.458972 
10   0.142753 
11   0.165437 
12   0.155198 
13   0.152181 
14   0.175547 
15   0.157476 
16   0.151112 
17   0.114431 
18   0.172395 
19   0.154471 
20   0.180664 
21   0.150857 
 
>  <lowdin_charges> 
21 
1   -0.447742 
2   -0.457065 
3   -0.127765 
4   -0.129165 
5   -0.161566 
6   0.182782 
7   -0.257276 
8   -0.256615 
9   -0.20049 
10   0.155284 
11   0.160491 
12   0.154485 
13   0.160722 
14   0.165537 
15   0.15705 
16   0.141635 
17   0.122375 
18   0.160585 
19   0.15397 
20   0.17333 
21   0.149437 
 
$$$$ 
 
