PCCDB-ID:  15163 
public computational chemistry database (PCCDB) project, http://pccdb.org 
 
 21 21  0  0  0  0  0  0  0  0999 V2000 
    0.8640    0.1464    0.0186 C   0  0  0  0  0  0  0  0  0  0  0  0 
    5.8637   -1.3433    0.1801 C   0  0  0  0  0  0  0  0  0  0  0  0 
    3.6689   -3.6031    0.5247 C   0  0  0  0  0  0  0  0  0  0  0  0 
    3.2006    1.1606   -0.1517 C   0  0  0  0  0  0  0  0  0  0  0  0 
    2.3628    0.0878    0.0112 C   0  0  0  0  0  0  0  0  0  0  0  0 
    4.5388   -0.6464    0.0909 C   0  0  0  0  0  0  0  0  0  0  0  0 
    2.6941   -2.4402    0.3705 C   0  0  0  0  0  0  0  0  0  0  0  0 
    3.2067   -1.0777    0.1686 C   0  0  0  0  0  0  0  0  0  0  0  0 
    4.5041    0.7043   -0.1016 N   0  0  0  0  0  0  0  0  0  0  0  0 
    1.4874   -2.6644    0.4166 O   0  0  0  0  0  0  0  0  0  0  0  0 
    0.5219    1.1774   -0.1287 H   0  0  0  0  0  0  0  0  0  0  0  0 
    0.4512   -0.2270    0.9612 H   0  0  0  0  0  0  0  0  0  0  0  0 
    0.4332   -0.4800   -0.7689 H   0  0  0  0  0  0  0  0  0  0  0  0 
    5.9630   -2.1434   -0.5610 H   0  0  0  0  0  0  0  0  0  0  0  0 
    6.0322   -1.7922    1.1660 H   0  0  0  0  0  0  0  0  0  0  0  0 
    6.6792   -0.6328    0.0033 H   0  0  0  0  0  0  0  0  0  0  0  0 
    4.3525   -3.4487    1.3675 H   0  0  0  0  0  0  0  0  0  0  0  0 
    4.2818   -3.7315   -0.3755 H   0  0  0  0  0  0  0  0  0  0  0  0 
    3.0898   -4.5130    0.6936 H   0  0  0  0  0  0  0  0  0  0  0  0 
    2.9813    2.2081   -0.3024 H   0  0  0  0  0  0  0  0  0  0  0  0 
    5.3252    1.2839   -0.1938 H   0  0  0  0  0  0  0  0  0  0  0  0 
  1 12  1  0  0  0  0 
  2 15  1  0  0  0  0 
  3 19  1  0  0  0  0 
  3 17  1  0  0  0  0 
  4  9  1  0  0  0  0 
  4  5  2  0  0  0  0 
  5  1  1  0  0  0  0 
  5  8  1  0  0  0  0 
  6  8  2  0  0  0  0 
  6  2  1  0  0  0  0 
  7 10  2  0  0  0  0 
  7  3  1  0  0  0  0 
  8  7  1  0  0  0  0 
  9  6  1  0  0  0  0 
 11  1  1  0  0  0  0 
 13  1  1  0  0  0  0 
 14  2  1  0  0  0  0 
 16  2  1  0  0  0  0 
 18  3  1  0  0  0  0 
 20  4  1  0  0  0  0 
 21  9  1  0  0  0  0 
M  END 
>  <HBA> 
1 
 
>  <HBD> 
1 
 
>  <TPSA> 
32.86 
 
>  <cid> 
15163 
 
>  <dipole> 
5.24 
 
>  <excitation_energy_1> 
4.094 
 
>  <excitation_energy_2> 
4.589 
 
>  <excitation_energy_3> 
4.8 
 
>  <excitation_energy_4> 
5.466 
 
>  <homo_energy> 
-5.674 
 
>  <homo_lumo_gap> 
5.268 
 
>  <logP> 
1.834 
 
>  <lumo_energy> 
-0.405 
 
>  <melting_point> 
95.16 
 
>  <molecular_refractivity> 
40.92 
 
>  <oscillator_strength_1> 
0.0002 
 
>  <oscillator_strength_2> 
0.0581 
 
>  <oscillator_strength_3> 
0.0019 
 
>  <oscillator_strength_4> 
0.1294 
 
>  <open_babel_can_smiles> 
CC(=O)c1c(C)c[nH]c1C 
 
>  <mulliken_charges> 
21 
1   -0.498152 
2   -0.527213 
3   -0.540018 
4   -0.023101 
5   0.104354 
6   0.292913 
7   0.395977 
8   -0.037848 
9   -0.610697 
10   -0.484324 
11   0.128334 
12   0.168812 
13   0.16893 
14   0.176912 
15   0.176371 
16   0.147644 
17   0.158088 
18   0.159377 
19   0.174862 
20   0.142215 
21   0.326563 
 
>  <lowdin_charges> 
21 
1   -0.433662 
2   -0.444016 
3   -0.47362 
4   -0.172822 
5   -0.015931 
6   0.023958 
7   0.154766 
8   -0.114867 
9   -0.170832 
10   -0.269423 
11   0.143748 
12   0.166437 
13   0.167427 
14   0.168395 
15   0.166475 
16   0.157049 
17   0.162456 
18   0.162874 
19   0.171268 
20   0.161502 
21   0.288817 
 
$$$$ 
 
