PCCDB-ID:  9695 
public computational chemistry database (PCCDB) project, http://pccdb.org 
 
 31 33  0  0  0  0  0  0  0  0999 V2000 
    2.3222   -1.8323   -0.4712 C   0  0  0  0  0  0  0  0  0  0  0  0 
    2.0156   -0.0441    3.0965 C   0  0  0  0  0  0  0  0  0  0  0  0 
   -0.7471   -2.9142    7.6457 C   0  0  0  0  0  0  0  0  0  0  0  0 
    1.2666   -0.4383    4.2023 C   0  0  0  0  0  0  0  0  0  0  0  0 
   -0.2500   -2.0141    6.7012 C   0  0  0  0  0  0  0  0  0  0  0  0 
    1.9105   -4.0898    4.5004 C   0  0  0  0  0  0  0  0  0  0  0  0 
    2.7796   -2.3266    2.7609 C   0  0  0  0  0  0  0  0  0  0  0  0 
    0.4803   -4.7384    6.5986 C   0  0  0  0  0  0  0  0  0  0  0  0 
    3.3870   -0.9147    0.0906 C   0  0  0  0  0  0  0  0  0  0  0  0 
    2.0430   -2.7148    3.8723 C   0  0  0  0  0  0  0  0  0  0  0  0 
    0.9704   -3.8392    5.6642 C   0  0  0  0  0  0  0  0  0  0  0  0 
    2.7623   -0.9780    2.3529 C   0  0  0  0  0  0  0  0  0  0  0  0 
   -0.3854   -4.2669    7.5960 C   0  0  0  0  0  0  0  0  0  0  0  0 
    1.2769   -1.7794    4.5966 C   0  0  0  0  0  0  0  0  0  0  0  0 
    0.6113   -2.4735    5.7047 C   0  0  0  0  0  0  0  0  0  0  0  0 
    3.5460   -0.5167    1.2840 N   0  0  0  0  0  0  0  0  0  0  0  0 
    4.2726   -0.4325   -0.8298 O   0  0  0  0  0  0  0  0  0  0  0  0 
   -0.8505   -5.1841    8.5016 O   0  0  0  0  0  0  0  0  0  0  0  0 
    2.7714   -2.7462   -0.8800 H   0  0  0  0  0  0  0  0  0  0  0  0 
    1.7890   -1.3294   -1.2884 H   0  0  0  0  0  0  0  0  0  0  0  0 
    1.6002   -2.1148    0.2956 H   0  0  0  0  0  0  0  0  0  0  0  0 
    2.0362    0.9959    2.7849 H   0  0  0  0  0  0  0  0  0  0  0  0 
   -1.4193   -2.5657    8.4282 H   0  0  0  0  0  0  0  0  0  0  0  0 
    0.6896    0.2999    4.7539 H   0  0  0  0  0  0  0  0  0  0  0  0 
   -0.5384   -0.9674    6.7528 H   0  0  0  0  0  0  0  0  0  0  0  0 
    2.8804   -4.4823    4.8361 H   0  0  0  0  0  0  0  0  0  0  0  0 
    1.5042   -4.8299    3.7970 H   0  0  0  0  0  0  0  0  0  0  0  0 
    3.3921   -3.0403    2.2149 H   0  0  0  0  0  0  0  0  0  0  0  0 
    0.7440   -5.7920    6.5850 H   0  0  0  0  0  0  0  0  0  0  0  0 
    4.0360   -0.7707   -1.7070 H   0  0  0  0  0  0  0  0  0  0  0  0 
   -1.4349   -4.7335    9.1307 H   0  0  0  0  0  0  0  0  0  0  0  0 
  1  9  1  0  0  0  0 
  1 21  1  0  0  0  0 
  2  4  2  0  0  0  0 
  3 23  1  0  0  0  0 
  4 14  1  0  0  0  0 
  4 24  1  0  0  0  0 
  5 25  1  0  0  0  0 
  5  3  2  0  0  0  0 
  6 26  1  0  0  0  0 
  6 11  1  0  0  0  0 
  7 10  1  0  0  0  0 
  8 13  2  0  0  0  0 
  9 16  2  0  0  0  0 
 10  6  1  0  0  0  0 
 10 14  2  0  0  0  0 
 11 15  2  0  0  0  0 
 11  8  1  0  0  0  0 
 12  7  2  0  0  0  0 
 12  2  1  0  0  0  0 
 13  3  1  0  0  0  0 
 13 18  1  0  0  0  0 
 14 15  1  0  0  0  0 
 15  5  1  0  0  0  0 
 16 12  1  0  0  0  0 
 17  9  1  0  0  0  0 
 18 31  1  0  0  0  0 
 19  1  1  0  0  0  0 
 20  1  1  0  0  0  0 
 22  2  1  0  0  0  0 
 27  6  1  0  0  0  0 
 28  7  1  0  0  0  0 
 29  8  1  0  0  0  0 
 30 17  1  0  0  0  0 
M  END 
>  <HBA> 
3 
 
>  <HBD> 
2 
 
>  <TPSA> 
49.33 
 
>  <cid> 
9695 
 
>  <dipole> 
3.43 
 
>  <excitation_energy_1> 
3.992 
 
>  <excitation_energy_2> 
4.122 
 
>  <excitation_energy_3> 
4.421 
 
>  <excitation_energy_4> 
4.567 
 
>  <homo_energy> 
-5.029 
 
>  <homo_lumo_gap> 
4.561 
 
>  <logP> 
2.995 
 
>  <lumo_energy> 
-0.468 
 
>  <melting_point> 
170.77 
 
>  <molecular_refractivity> 
71.22 
 
>  <oscillator_strength_1> 
0.0871 
 
>  <oscillator_strength_2> 
0.5442 
 
>  <oscillator_strength_3> 
0.0051 
 
>  <oscillator_strength_4> 
0.039 
 
>  <open_babel_can_smiles> 
Oc1ccc2c(c1)Cc1c2ccc(c1)/N=C(/O)\C 
 
>  <mulliken_charges> 
31 
1   -0.554986 
2   -0.164093 
3   -0.206677 
4   -0.203651 
5   -0.199966 
6   -0.420982 
7   -0.245665 
8   -0.245927 
9   0.482059 
10   0.101851 
11   0.10587 
12   0.246774 
13   0.362096 
14   0.090822 
15   0.084422 
16   -0.467058 
17   -0.570193 
18   -0.648643 
19   0.175156 
20   0.169861 
21   0.19891 
22   0.130689 
23   0.114761 
24   0.126038 
25   0.130275 
26   0.174305 
27   0.168279 
28   0.118899 
29   0.133244 
30   0.407346 
31   0.40618 
 
>  <lowdin_charges> 
31 
1   -0.485684 
2   -0.172629 
3   -0.215253 
4   -0.161735 
5   -0.151727 
6   -0.275544 
7   -0.19804 
8   -0.192699 
9   0.143889 
10   -0.003575 
11   0.005942 
12   0.046504 
13   0.100995 
14   -0.022596 
15   -0.029645 
16   -0.169851 
17   -0.360071 
18   -0.382356 
19   0.170115 
20   0.168227 
21   0.185291 
22   0.161259 
23   0.152584 
24   0.157595 
25   0.15691 
26   0.169798 
27   0.167807 
28   0.156471 
29   0.163946 
30   0.355724 
31   0.358348 
 
$$$$ 
 
