PCCDB-ID:  10982 
public computational chemistry database (PCCDB) project, http://pccdb.org 
 
 28 27  0  0  1  0  0  0  0  0999 V2000 
    0.9882   -1.8380    2.2133 C   0  0  0  0  0  0  0  0  0  0  0  0 
    3.2162   -1.1101    3.1485 C   0  0  0  0  0  0  0  0  0  0  0  0 
    6.9279   -3.0755   -2.3815 C   0  0  0  0  0  0  0  0  0  0  0  0 
    4.3914   -1.6581    0.2604 C   0  0  0  0  0  0  0  0  0  0  0  0 
    3.0799   -2.2063    0.8386 C   0  0  0  0  0  0  0  0  0  0  0  0 
    4.9930   -2.5691   -0.8172 C   0  0  0  0  0  0  0  0  0  0  0  0 
    2.3840   -1.2955    1.8705 C   0  0  0  0  0  0  0  0  0  0  0  0 
    6.2841   -2.0304   -1.4547 C   0  0  2  0  0  0  0  0  0  0  0  0 
    6.0045   -0.7438   -2.1166 N   0  0  0  0  0  0  0  0  0  0  0  0 
    0.4693   -1.1837    2.9242 H   0  0  0  0  0  0  0  0  0  0  0  0 
    1.0560   -2.8348    2.6691 H   0  0  0  0  0  0  0  0  0  0  0  0 
    0.3613   -1.9247    1.3176 H   0  0  0  0  0  0  0  0  0  0  0  0 
    2.6972   -0.4600    3.8632 H   0  0  0  0  0  0  0  0  0  0  0  0 
    4.1930   -0.6599    2.9426 H   0  0  0  0  0  0  0  0  0  0  0  0 
    3.3895   -2.0750    3.6440 H   0  0  0  0  0  0  0  0  0  0  0  0 
    7.1734   -3.9998   -1.8436 H   0  0  0  0  0  0  0  0  0  0  0  0 
    7.8549   -2.6899   -2.8240 H   0  0  0  0  0  0  0  0  0  0  0  0 
    6.2479   -3.3376   -3.2034 H   0  0  0  0  0  0  0  0  0  0  0  0 
    5.1320   -1.5264    1.0613 H   0  0  0  0  0  0  0  0  0  0  0  0 
    4.2262   -0.6631   -0.1699 H   0  0  0  0  0  0  0  0  0  0  0  0 
    3.2611   -3.1905    1.2994 H   0  0  0  0  0  0  0  0  0  0  0  0 
    2.3799   -2.3878    0.0093 H   0  0  0  0  0  0  0  0  0  0  0  0 
    4.2515   -2.7367   -1.6154 H   0  0  0  0  0  0  0  0  0  0  0  0 
    5.2008   -3.5599   -0.3889 H   0  0  0  0  0  0  0  0  0  0  0  0 
    2.2551   -0.3057    1.4055 H   0  0  0  0  0  0  0  0  0  0  0  0 
    6.9942   -1.8080   -0.6447 H   0  0  0  0  0  0  0  0  0  0  0  0 
    5.3959   -0.9101   -2.9201 H   0  0  0  0  0  0  0  0  0  0  0  0 
    6.8696   -0.3642   -2.5010 H   0  0  0  0  0  0  0  0  0  0  0  0 
  1 11  1  0  0  0  0 
  1 10  1  0  0  0  0 
  2 15  1  0  0  0  0 
  2 13  1  0  0  0  0 
  3 16  1  0  0  0  0 
  3  8  1  0  0  0  0 
  4  5  1  0  0  0  0 
  4 19  1  0  0  0  0 
  5 21  1  0  0  0  0 
  5  7  1  0  0  0  0 
  6 24  1  0  0  0  0 
  6  4  1  0  0  0  0 
  7  1  1  0  0  0  0 
  7  2  1  0  0  0  0 
  8  6  1  0  0  0  0 
  8 26  1  1  0  0  0 
  9  8  1  0  0  0  0 
 12  1  1  0  0  0  0 
 14  2  1  0  0  0  0 
 17  3  1  0  0  0  0 
 18  3  1  0  0  0  0 
 20  4  1  0  0  0  0 
 22  5  1  0  0  0  0 
 23  6  1  0  0  0  0 
 25  7  1  0  0  0  0 
 27  9  1  0  0  0  0 
 28  9  1  0  0  0  0 
M  END 
>  <HBA> 
1 
 
>  <HBD> 
1 
 
>  <TPSA> 
26.02 
 
>  <cid> 
10982 
 
>  <dipole> 
1.41 
 
>  <excitation_energy_1> 
5.709 
 
>  <excitation_energy_2> 
6.329 
 
>  <excitation_energy_3> 
6.445 
 
>  <excitation_energy_4> 
6.553 
 
>  <homo_energy> 
-6.242 
 
>  <homo_lumo_gap> 
8.327 
 
>  <logP> 
2.86 
 
>  <lumo_energy> 
2.084 
 
>  <melting_point> 
26.36 
 
>  <molecular_refractivity> 
43.28 
 
>  <oscillator_strength_1> 
0.0413 
 
>  <oscillator_strength_2> 
0.0063 
 
>  <oscillator_strength_3> 
0.0006 
 
>  <oscillator_strength_4> 
0.0084 
 
>  <open_babel_can_smiles> 
CC(CCC[C@H](N)C)C 
 
>  <mulliken_charges> 
28 
1   -0.441403 
2   -0.444501 
3   -0.446561 
4   -0.25533 
5   -0.247048 
6   -0.248741 
7   -0.063932 
8   0.025909 
9   -0.704931 
10   0.137175 
11   0.136357 
12   0.137426 
13   0.137441 
14   0.146298 
15   0.134947 
16   0.140133 
17   0.13341 
18   0.133861 
19   0.125851 
20   0.155974 
21   0.118137 
22   0.120856 
23   0.116606 
24   0.126045 
25   0.120419 
26   0.128021 
27   0.285594 
28   0.291987 
 
>  <lowdin_charges> 
28 
1   -0.445502 
2   -0.447513 
3   -0.462546 
4   -0.278087 
5   -0.275429 
6   -0.276879 
7   -0.119441 
8   -0.065748 
9   -0.55093 
10   0.147576 
11   0.143549 
12   0.146321 
13   0.14821 
14   0.148914 
15   0.143435 
16   0.149171 
17   0.144518 
18   0.14413 
19   0.13851 
20   0.151851 
21   0.132873 
22   0.137347 
23   0.134114 
24   0.139634 
25   0.134252 
26   0.137216 
27   0.248125 
28   0.252328 
 
$$$$ 
 
