PCCDB-ID:  42096 
public computational chemistry database (PCCDB) project, http://pccdb.org 
 
 26 25  0  0  1  0  0  0  0  0999 V2000 
    2.4597   -0.8621    0.8004 C   0  0  0  0  0  0  0  0  0  0  0  0 
    2.1694    0.6423   -2.8344 C   0  0  0  0  0  0  0  0  0  0  0  0 
    5.2586   -3.9371    0.2789 C   0  0  0  0  0  0  0  0  0  0  0  0 
    1.9457   -0.0175   -0.3685 C   0  0  0  0  0  0  0  0  0  0  0  0 
    5.1962   -0.9019   -1.8606 C   0  0  0  0  0  0  0  0  0  0  0  0 
    2.7453   -0.1867   -1.6761 C   0  0  2  0  0  0  0  0  0  0  0  0 
    4.8245   -3.0548   -0.8648 C   0  0  0  0  0  0  0  0  0  0  0  0 
    4.7338    1.2521   -1.1088 N   0  0  0  0  0  0  0  0  0  0  0  0 
    4.2039    0.0784   -1.5134 N   0  0  0  0  0  0  0  0  0  0  0  0 
    4.0259   -3.3578   -1.7242 O   0  0  0  0  0  0  0  0  0  0  0  0 
    3.9274    2.1333   -0.8430 O   0  0  0  0  0  0  0  0  0  0  0  0 
    5.4512   -1.8489   -0.7990 O   0  0  0  0  0  0  0  0  0  0  0  0 
    1.8300   -0.7171    1.6848 H   0  0  0  0  0  0  0  0  0  0  0  0 
    3.4846   -0.5875    1.0720 H   0  0  0  0  0  0  0  0  0  0  0  0 
    2.4465   -1.9312    0.5551 H   0  0  0  0  0  0  0  0  0  0  0  0 
    1.1265    0.3530   -3.0055 H   0  0  0  0  0  0  0  0  0  0  0  0 
    2.7260    0.4602   -3.7601 H   0  0  0  0  0  0  0  0  0  0  0  0 
    2.2014    1.7108   -2.6120 H   0  0  0  0  0  0  0  0  0  0  0  0 
    4.8071   -4.9236    0.1708 H   0  0  0  0  0  0  0  0  0  0  0  0 
    4.9445   -3.4882    1.2274 H   0  0  0  0  0  0  0  0  0  0  0  0 
    6.3495   -4.0195    0.3024 H   0  0  0  0  0  0  0  0  0  0  0  0 
    1.9193    1.0378   -0.0887 H   0  0  0  0  0  0  0  0  0  0  0  0 
    0.9133   -0.3110   -0.6023 H   0  0  0  0  0  0  0  0  0  0  0  0 
    6.1388   -0.3775   -2.0067 H   0  0  0  0  0  0  0  0  0  0  0  0 
    4.8926   -1.4499   -2.7529 H   0  0  0  0  0  0  0  0  0  0  0  0 
    2.7082   -1.2445   -1.9530 H   0  0  0  0  0  0  0  0  0  0  0  0 
  1 14  1  0  0  0  0 
  1 13  1  0  0  0  0 
  2 18  1  0  0  0  0 
  2  6  1  0  0  0  0 
  3 21  1  0  0  0  0 
  3 20  1  0  0  0  0 
  4 22  1  0  0  0  0 
  4  1  1  0  0  0  0 
  5  9  1  0  0  0  0 
  5 12  1  0  0  0  0 
  6 26  1  6  0  0  0 
  6  9  1  0  0  0  0 
  6  4  1  0  0  0  0 
  7 12  1  0  0  0  0 
  7  3  1  0  0  0  0 
  8 11  2  0  0  0  0 
  9  8  1  0  0  0  0 
 10  7  2  0  0  0  0 
 15  1  1  0  0  0  0 
 16  2  1  0  0  0  0 
 17  2  1  0  0  0  0 
 19  3  1  0  0  0  0 
 23  4  1  0  0  0  0 
 24  5  1  0  0  0  0 
 25  5  1  0  0  0  0 
M  END 
>  <HBA> 
5 
 
>  <HBD> 
0 
 
>  <TPSA> 
58.97 
 
>  <cid> 
42096 
 
>  <dipole> 
2.58 
 
>  <excitation_energy_1> 
3.162 
 
>  <excitation_energy_2> 
5.334 
 
>  <excitation_energy_3> 
5.733 
 
>  <excitation_energy_4> 
5.779 
 
>  <homo_energy> 
-6.169 
 
>  <homo_lumo_gap> 
5.015 
 
>  <logP> 
1.289 
 
>  <lumo_energy> 
-1.154 
 
>  <melting_point> 
6.9 
 
>  <molecular_refractivity> 
44.68 
 
>  <oscillator_strength_1> 
0.0009 
 
>  <oscillator_strength_2> 
0.0001 
 
>  <oscillator_strength_3> 
0.0716 
 
>  <oscillator_strength_4> 
0.0625 
 
>  <open_babel_can_smiles> 
CC[C@H](N(COC(=O)C)N=O)C 
 
>  <mulliken_charges> 
26 
1   -0.462767 
2   -0.45324 
3   -0.526157 
4   -0.258927 
5   0.066358 
6   0.006508 
7   0.613507 
8   0.153521 
9   -0.226958 
10   -0.468033 
11   -0.364452 
12   -0.444892 
13   0.149317 
14   0.158532 
15   0.142576 
16   0.151343 
17   0.145886 
18   0.183987 
19   0.186493 
20   0.192665 
21   0.187047 
22   0.176065 
23   0.137335 
24   0.189698 
25   0.188053 
26   0.176535 
 
>  <lowdin_charges> 
26 
1   -0.449224 
2   -0.447863 
3   -0.461449 
4   -0.279096 
5   -0.080364 
6   -0.065645 
7   0.208686 
8   0.060685 
9   -0.048419 
10   -0.26453 
11   -0.253472 
12   -0.20259 
13   0.155041 
14   0.152528 
15   0.144441 
16   0.155755 
17   0.15213 
18   0.166747 
19   0.177615 
20   0.18398 
21   0.179079 
22   0.160784 
23   0.146919 
24   0.175082 
25   0.168485 
26   0.164695 
 
$$$$ 
 
