PCCDB-ID:  14077 
public computational chemistry database (PCCDB) project, http://pccdb.org 
 
 15 15  0  0  0  0  0  0  0  0999 V2000 
    0.9173   -0.4475    0.2898 C   0  0  0  0  0  0  0  0  0  0  0  0 
    0.2588   -0.8347   -0.9595 C   0  0  0  0  0  0  0  0  0  0  0  0 
    2.1864    0.3922    0.0485 C   0  0  0  0  0  0  0  0  0  0  0  0 
    4.1691    1.1650    1.3137 C   0  0  0  0  0  0  0  0  0  0  0  0 
    3.7757   -0.1583    1.8738 C   0  0  0  0  0  0  0  0  0  0  0  0 
   -0.2476   -1.1319   -1.9609 N   0  0  0  0  0  0  0  0  0  0  0  0 
    2.7664    0.7565    1.3346 N   0  0  0  0  0  0  0  0  0  0  0  0 
    1.1714   -1.3543    0.8523 H   0  0  0  0  0  0  0  0  0  0  0  0 
    0.2174    0.1260    0.9078 H   0  0  0  0  0  0  0  0  0  0  0  0 
    1.9198    1.3125   -0.4826 H   0  0  0  0  0  0  0  0  0  0  0  0 
    2.8853   -0.1701   -0.5965 H   0  0  0  0  0  0  0  0  0  0  0  0 
    4.6889    1.1638    0.3550 H   0  0  0  0  0  0  0  0  0  0  0  0 
    4.4271    1.9918    1.9713 H   0  0  0  0  0  0  0  0  0  0  0  0 
    3.7423   -0.3171    2.9490 H   0  0  0  0  0  0  0  0  0  0  0  0 
    4.0344   -1.0418    1.2880 H   0  0  0  0  0  0  0  0  0  0  0  0 
  1  8  1  0  0  0  0 
  1  9  1  0  0  0  0 
  2  1  1  0  0  0  0 
  3  1  1  0  0  0  0 
  3  7  1  0  0  0  0 
  4  7  1  0  0  0  0 
  4  5  1  0  0  0  0 
  4 13  1  0  0  0  0 
  5 14  1  0  0  0  0 
  6  2  3  0  0  0  0 
  7  5  1  0  0  0  0 
 10  3  1  0  0  0  0 
 11  3  1  0  0  0  0 
 12  4  1  0  0  0  0 
 15  5  1  0  0  0  0 
M  END 
>  <HBA> 
2 
 
>  <HBD> 
0 
 
>  <TPSA> 
26.8 
 
>  <cid> 
14077 
 
>  <dipole> 
4.03 
 
>  <excitation_energy_1> 
6.233 
 
>  <excitation_energy_2> 
6.442 
 
>  <excitation_energy_3> 
6.642 
 
>  <excitation_energy_4> 
6.813 
 
>  <homo_energy> 
-6.86 
 
>  <homo_lumo_gap> 
7.793 
 
>  <logP> 
0.154 
 
>  <lumo_energy> 
0.933 
 
>  <melting_point> 
19.29 
 
>  <molecular_refractivity> 
30.59 
 
>  <oscillator_strength_1> 
0.0085 
 
>  <oscillator_strength_2> 
0.0209 
 
>  <oscillator_strength_3> 
0.0646 
 
>  <oscillator_strength_4> 
0.0217 
 
>  <open_babel_can_smiles> 
N#CCCN1CC1 
 
>  <mulliken_charges> 
15 
1   -0.341158 
2   0.346481 
3   -0.126929 
4   -0.192938 
5   -0.200703 
6   -0.471895 
7   -0.35527 
8   0.1953 
9   0.208082 
10   0.169491 
11   0.136085 
12   0.152206 
13   0.165857 
14   0.165378 
15   0.150015 
 
>  <lowdin_charges> 
15 
1   -0.278338 
2   -0.01834 
3   -0.192625 
4   -0.23685 
5   -0.244476 
6   -0.12775 
7   -0.194809 
8   0.182249 
9   0.190378 
10   0.159304 
11   0.134308 
12   0.151601 
13   0.164073 
14   0.160965 
15   0.150309 
 
$$$$ 
 
