PCCDB-ID:  15617 
public computational chemistry database (PCCDB) project, http://pccdb.org 
 
 15 15  0  0  0  0  0  0  0  0999 V2000 
    0.9227   -0.0186   -0.0792 C   0  0  0  0  0  0  0  0  0  0  0  0 
    2.6827    2.4886   -0.0830 C   0  0  0  0  0  0  0  0  0  0  0  0 
    4.4746   -0.6448   -0.0713 C   0  0  0  0  0  0  0  0  0  0  0  0 
    4.5005    0.7250   -0.0765 C   0  0  0  0  0  0  0  0  0  0  0  0 
    2.4174   -0.0248   -0.0757 C   0  0  0  0  0  0  0  0  0  0  0  0 
    3.1774   -1.1048   -0.0709 N   0  0  0  0  0  0  0  0  0  0  0  0 
    3.1749    1.1225   -0.0796 N   0  0  0  0  0  0  0  0  0  0  0  0 
    0.5772   -1.0542   -0.0733 H   0  0  0  0  0  0  0  0  0  0  0  0 
    0.5102    0.4771   -0.9681 H   0  0  0  0  0  0  0  0  0  0  0  0 
    0.5058    0.4886    0.8011 H   0  0  0  0  0  0  0  0  0  0  0  0 
    3.5331    3.1732   -0.0829 H   0  0  0  0  0  0  0  0  0  0  0  0 
    2.0743    2.6898    0.8056 H   0  0  0  0  0  0  0  0  0  0  0  0 
    2.0771    2.6865   -0.9742 H   0  0  0  0  0  0  0  0  0  0  0  0 
    5.3144   -1.3269   -0.0685 H   0  0  0  0  0  0  0  0  0  0  0  0 
    5.3061    1.4447   -0.0786 H   0  0  0  0  0  0  0  0  0  0  0  0 
  1  5  1  0  0  0  0 
  1  8  1  0  0  0  0 
  1 10  1  0  0  0  0 
  2 11  1  0  0  0  0 
  2  7  1  0  0  0  0 
  2 12  1  0  0  0  0 
  3  6  1  0  0  0  0 
  3 14  1  0  0  0  0 
  4  3  2  0  0  0  0 
  5  6  2  0  0  0  0 
  7  4  1  0  0  0  0 
  7  5  1  0  0  0  0 
  9  1  1  0  0  0  0 
 13  2  1  0  0  0  0 
 15  4  1  0  0  0  0 
M  END 
>  <HBA> 
2 
 
>  <HBD> 
0 
 
>  <TPSA> 
17.82 
 
>  <cid> 
15617 
 
>  <dipole> 
3.89 
 
>  <excitation_energy_1> 
5.128 
 
>  <excitation_energy_2> 
5.682 
 
>  <excitation_energy_3> 
5.944 
 
>  <excitation_energy_4> 
5.945 
 
>  <homo_energy> 
-5.717 
 
>  <homo_lumo_gap> 
6.738 
 
>  <logP> 
0.729 
 
>  <lumo_energy> 
1.02 
 
>  <melting_point> 
25.82 
 
>  <molecular_refractivity> 
28.45 
 
>  <oscillator_strength_1> 
0.0136 
 
>  <oscillator_strength_2> 
0.0045 
 
>  <oscillator_strength_3> 
0.1125 
 
>  <oscillator_strength_4> 
0.0176 
 
>  <open_babel_can_smiles> 
Cn1ccnc1C 
 
>  <mulliken_charges> 
15 
1   -0.530334 
2   -0.322098 
3   -0.039017 
4   0.004291 
5   0.465115 
6   -0.473313 
7   -0.403375 
8   0.191302 
9   0.157672 
10   0.157462 
11   0.173679 
12   0.174224 
13   0.174183 
14   0.127946 
15   0.142263 
 
>  <lowdin_charges> 
15 
1   -0.448019 
2   -0.346879 
3   -0.158739 
4   -0.181125 
5   0.041331 
6   -0.203986 
7   -0.019342 
8   0.181429 
9   0.158957 
10   0.158912 
11   0.169377 
12   0.161807 
13   0.161754 
14   0.159501 
15   0.165023 
 
$$$$ 
 
