PCCDB-ID:  57552 
public computational chemistry database (PCCDB) project, http://pccdb.org 
 
 31 32  0  0  0  0  0  0  0  0999 V2000 
    1.3604    1.9087    3.0247 C   0  0  0  0  0  0  0  0  0  0  0  0 
    2.2032    2.8121    2.3755 C   0  0  0  0  0  0  0  0  0  0  0  0 
    1.0490    0.6943    2.4089 C   0  0  0  0  0  0  0  0  0  0  0  0 
    2.7298    2.4992    1.1202 C   0  0  0  0  0  0  0  0  0  0  0  0 
    1.5748    0.3839    1.1541 C   0  0  0  0  0  0  0  0  0  0  0  0 
    5.5335   -0.3590   -0.1339 C   0  0  0  0  0  0  0  0  0  0  0  0 
    5.6373   -0.7494    1.3527 C   0  0  0  0  0  0  0  0  0  0  0  0 
    6.8362   -0.0315    3.3957 C   0  0  0  0  0  0  0  0  0  0  0  0 
    6.6733    1.1690    2.5293 C   0  0  0  0  0  0  0  0  0  0  0  0 
    2.9728    0.9735   -0.8915 C   0  0  0  0  0  0  0  0  0  0  0  0 
    2.4218    1.2846    0.4941 C   0  0  0  0  0  0  0  0  0  0  0  0 
    4.3133   -0.9768   -0.7914 C   0  0  0  0  0  0  0  0  0  0  0  0 
    3.2093   -0.4447   -1.1160 N   0  0  0  0  0  0  0  0  0  0  0  0 
    6.8381   -0.1624    1.9392 N   0  0  0  0  0  0  0  0  0  0  0  0 
    4.4142   -2.3263   -1.0077 O   0  0  0  0  0  0  0  0  0  0  0  0 
    0.9508    2.1480    4.0026 H   0  0  0  0  0  0  0  0  0  0  0  0 
    2.4555    3.7590    2.8463 H   0  0  0  0  0  0  0  0  0  0  0  0 
    0.3927   -0.0150    2.9070 H   0  0  0  0  0  0  0  0  0  0  0  0 
    3.3853    3.2092    0.6192 H   0  0  0  0  0  0  0  0  0  0  0  0 
    1.3387   -0.5627    0.6775 H   0  0  0  0  0  0  0  0  0  0  0  0 
    6.4461   -0.6860   -0.6504 H   0  0  0  0  0  0  0  0  0  0  0  0 
    5.5013    0.7304   -0.2137 H   0  0  0  0  0  0  0  0  0  0  0  0 
    5.7138   -1.8399    1.4518 H   0  0  0  0  0  0  0  0  0  0  0  0 
    4.7141   -0.4428    1.8749 H   0  0  0  0  0  0  0  0  0  0  0  0 
    5.9553   -0.3742    3.9397 H   0  0  0  0  0  0  0  0  0  0  0  0 
    7.7843   -0.2378    3.8874 H   0  0  0  0  0  0  0  0  0  0  0  0 
    7.5017    1.8573    2.3771 H   0  0  0  0  0  0  0  0  0  0  0  0 
    5.6831    1.6257    2.4934 H   0  0  0  0  0  0  0  0  0  0  0  0 
    3.8644    1.5965   -1.0647 H   0  0  0  0  0  0  0  0  0  0  0  0 
    2.2370    1.2923   -1.6425 H   0  0  0  0  0  0  0  0  0  0  0  0 
    5.3162   -2.6147   -0.8001 H   0  0  0  0  0  0  0  0  0  0  0  0 
  1 16  1  0  0  0  0 
  2 17  1  0  0  0  0 
  2  1  2  0  0  0  0 
  3 18  1  0  0  0  0 
  3  1  1  0  0  0  0 
  4  2  1  0  0  0  0 
  5  3  2  0  0  0  0 
  6  7  1  0  0  0  0 
  7 23  1  0  0  0  0 
  7 24  1  0  0  0  0 
  7 14  1  0  0  0  0 
  8 26  1  0  0  0  0 
  8 25  1  0  0  0  0 
  9  8  1  0  0  0  0 
 10 11  1  0  0  0  0 
 11  4  2  0  0  0  0 
 11  5  1  0  0  0  0 
 12  6  1  0  0  0  0 
 13 10  1  0  0  0  0 
 13 12  2  0  0  0  0 
 14  9  1  0  0  0  0 
 14  8  1  0  0  0  0 
 15 31  1  0  0  0  0 
 15 12  1  0  0  0  0 
 19  4  1  0  0  0  0 
 20  5  1  0  0  0  0 
 21  6  1  0  0  0  0 
 22  6  1  0  0  0  0 
 27  9  1  0  0  0  0 
 28  9  1  0  0  0  0 
 29 10  1  0  0  0  0 
 30 10  1  0  0  0  0 
M  END 
>  <HBA> 
3 
 
>  <HBD> 
1 
 
>  <TPSA> 
32.11 
 
>  <cid> 
57552 
 
>  <dipole> 
3.14 
 
>  <excitation_energy_1> 
5.265 
 
>  <excitation_energy_2> 
5.469 
 
>  <excitation_energy_3> 
5.647 
 
>  <excitation_energy_4> 
5.702 
 
>  <homo_energy> 
-6.422 
 
>  <homo_lumo_gap> 
6.433 
 
>  <logP> 
1.337 
 
>  <lumo_energy> 
0.011 
 
>  <melting_point> 
63.69 
 
>  <molecular_refractivity> 
63.14 
 
>  <oscillator_strength_1> 
0.0015 
 
>  <oscillator_strength_2> 
0.0014 
 
>  <oscillator_strength_3> 
0.0047 
 
>  <oscillator_strength_4> 
0.0008 
 
>  <open_babel_can_smiles> 
O/C(=N/Cc1ccccc1)/CCN1CC1 
 
>  <mulliken_charges> 
31 
1   -0.130996 
2   -0.131338 
3   -0.13158 
4   -0.189177 
5   -0.17387 
6   -0.367227 
7   -0.129919 
8   -0.194526 
9   -0.204809 
10   -0.234731 
11   0.144456 
12   0.497692 
13   -0.418211 
14   -0.358688 
15   -0.583124 
16   0.127509 
17   0.127633 
18   0.130094 
19   0.120141 
20   0.155394 
21   0.15884 
22   0.167701 
23   0.139694 
24   0.14839 
25   0.150982 
26   0.159525 
27   0.158561 
28   0.159011 
29   0.128853 
30   0.167147 
31   0.406574 
 
>  <lowdin_charges> 
31 
1   -0.162061 
2   -0.158681 
3   -0.156125 
4   -0.177887 
5   -0.162657 
6   -0.312687 
7   -0.19677 
8   -0.241136 
9   -0.248347 
10   -0.201806 
11   -0.011913 
12   0.134696 
13   -0.209254 
14   -0.197072 
15   -0.368415 
16   0.156106 
17   0.156392 
18   0.158817 
19   0.153713 
20   0.170419 
21   0.159794 
22   0.162943 
23   0.140012 
24   0.138828 
25   0.151936 
26   0.160182 
27   0.160168 
28   0.153885 
29   0.133377 
30   0.160504 
31   0.353034 
 
$$$$ 
 
