PCCDB-ID:  17583 
public computational chemistry database (PCCDB) project, http://pccdb.org 
 
 22 21  0  0  0  0  0  0  0  0999 V2000 
    1.4052   -1.3263    0.2135 C   0  0  0  0  0  0  0  0  0  0  0  0 
    4.2894    2.9227    2.3239 C   0  0  0  0  0  0  0  0  0  0  0  0 
    0.1247    3.3636    0.6216 C   0  0  0  0  0  0  0  0  0  0  0  0 
    1.2544   -0.0422    0.5459 C   0  0  0  0  0  0  0  0  0  0  0  0 
    3.4354    3.0332    1.0575 C   0  0  0  0  0  0  0  0  0  0  0  0 
    1.0306    2.6698    1.6447 C   0  0  0  0  0  0  0  0  0  0  0  0 
    2.4525    0.8563    0.6149 C   0  0  0  0  0  0  0  0  0  0  0  0 
    2.2697    2.1420    1.0700 N   0  0  0  0  0  0  0  0  0  0  0  0 
    3.5620    0.4597    0.2544 O   0  0  0  0  0  0  0  0  0  0  0  0 
    0.5572   -2.0006    0.1371 H   0  0  0  0  0  0  0  0  0  0  0  0 
    2.3951   -1.7212    0.0055 H   0  0  0  0  0  0  0  0  0  0  0  0 
    5.1321    3.6225    2.2775 H   0  0  0  0  0  0  0  0  0  0  0  0 
    4.6872    1.9085    2.4172 H   0  0  0  0  0  0  0  0  0  0  0  0 
    3.7076    3.1547    3.2241 H   0  0  0  0  0  0  0  0  0  0  0  0 
   -0.7577    3.7885    1.1144 H   0  0  0  0  0  0  0  0  0  0  0  0 
   -0.2150    2.6592   -0.1453 H   0  0  0  0  0  0  0  0  0  0  0  0 
    0.6556    4.1776    0.1157 H   0  0  0  0  0  0  0  0  0  0  0  0 
    0.2637    0.3557    0.7416 H   0  0  0  0  0  0  0  0  0  0  0  0 
    4.0370    2.7776    0.1831 H   0  0  0  0  0  0  0  0  0  0  0  0 
    3.0677    4.0580    0.9287 H   0  0  0  0  0  0  0  0  0  0  0  0 
    0.4909    1.8678    2.1551 H   0  0  0  0  0  0  0  0  0  0  0  0 
    1.3144    3.3803    2.4300 H   0  0  0  0  0  0  0  0  0  0  0  0 
  1  4  2  0  0  0  0 
  2 13  1  0  0  0  0 
  2 14  1  0  0  0  0 
  3 15  1  0  0  0  0 
  3  6  1  0  0  0  0 
  4  7  1  0  0  0  0 
  4 18  1  0  0  0  0 
  5  8  1  0  0  0  0 
  5  2  1  0  0  0  0 
  6 21  1  0  0  0  0 
  6 22  1  0  0  0  0 
  7  8  1  0  0  0  0 
  8  6  1  0  0  0  0 
  9  7  2  0  0  0  0 
 10  1  1  0  0  0  0 
 11  1  1  0  0  0  0 
 12  2  1  0  0  0  0 
 16  3  1  0  0  0  0 
 17  3  1  0  0  0  0 
 19  5  1  0  0  0  0 
 20  5  1  0  0  0  0 
M  END 
>  <HBA> 
2 
 
>  <HBD> 
0 
 
>  <TPSA> 
20.31 
 
>  <cid> 
17583 
 
>  <dipole> 
3.46 
 
>  <excitation_energy_1> 
4.344 
 
>  <excitation_energy_2> 
4.863 
 
>  <excitation_energy_3> 
5.749 
 
>  <excitation_energy_4> 
6.132 
 
>  <homo_energy> 
-6.289 
 
>  <homo_lumo_gap> 
5.499 
 
>  <logP> 
1.041 
 
>  <lumo_energy> 
-0.789 
 
>  <melting_point> 
-23.8 
 
>  <molecular_refractivity> 
38.38 
 
>  <oscillator_strength_1> 
0.0013 
 
>  <oscillator_strength_2> 
0.0937 
 
>  <oscillator_strength_3> 
0.0168 
 
>  <oscillator_strength_4> 
0.2375 
 
>  <open_babel_can_smiles> 
CCN(C(=O)C=C)CC 
 
>  <mulliken_charges> 
22 
1   -0.309198 
2   -0.445039 
3   -0.441872 
4   -0.143299 
5   -0.142315 
6   -0.155692 
7   0.580733 
8   -0.420451 
9   -0.539921 
10   0.145866 
11   0.181508 
12   0.144251 
13   0.179119 
14   0.138648 
15   0.147322 
16   0.158145 
17   0.156995 
18   0.133008 
19   0.181599 
20   0.135743 
21   0.159241 
22   0.155612 
 
>  <lowdin_charges> 
22 
1   -0.274047 
2   -0.451895 
3   -0.456788 
4   -0.199487 
5   -0.194241 
6   -0.200166 
7   0.157767 
8   -0.10493 
9   -0.326962 
10   0.163614 
11   0.180244 
12   0.153377 
13   0.165637 
14   0.144928 
15   0.154595 
16   0.155601 
17   0.156258 
18   0.157352 
19   0.169878 
20   0.140914 
21   0.155075 
22   0.153275 
 
$$$$ 
 
