PCCDB-ID:  23842 
public computational chemistry database (PCCDB) project, http://pccdb.org 
 
 32 32  0  0  0  0  0  0  0  0999 V2000 
    2.3252    1.4855   -0.0351 C   0  0  0  0  0  0  0  0  0  0  0  0 
    2.6279   -0.0071    1.9902 C   0  0  0  0  0  0  0  0  0  0  0  0 
    4.4710   -3.9046   -4.4478 C   0  0  0  0  0  0  0  0  0  0  0  0 
    5.4721   -5.9055   -3.2537 C   0  0  0  0  0  0  0  0  0  0  0  0 
    3.2508    0.4896    0.6777 C   0  0  0  0  0  0  0  0  0  0  0  0 
    5.0035   -4.4531   -3.1133 C   0  0  0  0  0  0  0  0  0  0  0  0 
    4.6449   -0.9627   -0.5751 C   0  0  0  0  0  0  0  0  0  0  0  0 
    5.9347   -2.6237   -1.9186 C   0  0  0  0  0  0  0  0  0  0  0  0 
    6.9325   -0.7881   -0.7104 C   0  0  0  0  0  0  0  0  0  0  0  0 
    3.4660   -0.6571   -0.2005 N   0  0  0  0  0  0  0  0  0  0  0  0 
    6.1314   -3.6485   -2.6502 N   0  0  0  0  0  0  0  0  0  0  0  0 
    4.7615   -2.0824   -1.4370 N   0  0  0  0  0  0  0  0  0  0  0  0 
    5.8313   -0.3098   -0.2394 N   0  0  0  0  0  0  0  0  0  0  0  0 
    7.0564   -1.8812   -1.5073 N   0  0  0  0  0  0  0  0  0  0  0  0 
    8.1118   -0.2100   -0.4303 O   0  0  0  0  0  0  0  0  0  0  0  0 
    2.1151    2.3492    0.6073 H   0  0  0  0  0  0  0  0  0  0  0  0 
    1.3744    1.0062   -0.2953 H   0  0  0  0  0  0  0  0  0  0  0  0 
    2.7843    1.8501   -0.9606 H   0  0  0  0  0  0  0  0  0  0  0  0 
    2.4140    0.8330    2.6619 H   0  0  0  0  0  0  0  0  0  0  0  0 
    3.3061   -0.6950    2.5072 H   0  0  0  0  0  0  0  0  0  0  0  0 
    1.6912   -0.5405    1.7915 H   0  0  0  0  0  0  0  0  0  0  0  0 
    3.6433   -4.5193   -4.8204 H   0  0  0  0  0  0  0  0  0  0  0  0 
    5.2692   -3.9062   -5.1983 H   0  0  0  0  0  0  0  0  0  0  0  0 
    4.1109   -2.8749   -4.3415 H   0  0  0  0  0  0  0  0  0  0  0  0 
    4.6542   -6.5497   -3.5967 H   0  0  0  0  0  0  0  0  0  0  0  0 
    5.8364   -6.2882   -2.2948 H   0  0  0  0  0  0  0  0  0  0  0  0 
    6.2935   -5.9684   -3.9761 H   0  0  0  0  0  0  0  0  0  0  0  0 
    4.1977    0.9962    0.9097 H   0  0  0  0  0  0  0  0  0  0  0  0 
    4.1737   -4.4473   -2.3821 H   0  0  0  0  0  0  0  0  0  0  0  0 
    3.8840   -2.5305   -1.6599 H   0  0  0  0  0  0  0  0  0  0  0  0 
    7.9594   -2.2006   -1.8310 H   0  0  0  0  0  0  0  0  0  0  0  0 
    7.9029    0.5532    0.1384 H   0  0  0  0  0  0  0  0  0  0  0  0 
  1 16  1  0  0  0  0 
  1  5  1  0  0  0  0 
  2 20  1  0  0  0  0 
  2 19  1  0  0  0  0 
  3 24  1  0  0  0  0 
  3  6  1  0  0  0  0 
  4  6  1  0  0  0  0 
  4 26  1  0  0  0  0 
  5 28  1  0  0  0  0 
  5  2  1  0  0  0  0 
  6 11  1  0  0  0  0 
  6 29  1  0  0  0  0 
  7 13  2  0  0  0  0 
  7 10  1  0  0  0  0 
  8 14  1  0  0  0  0 
  8 12  1  0  0  0  0 
  9 15  1  0  0  0  0 
  9 13  2  0  0  0  0 
 10  5  1  0  0  0  0 
 11  8  2  0  0  0  0 
 12  7  1  0  0  0  0 
 14  9  1  0  0  0  0 
 15 32  1  0  0  0  0 
 17  1  1  0  0  0  0 
 18  1  1  0  0  0  0 
 21  2  1  0  0  0  0 
 22  3  1  0  0  0  0 
 23  3  1  0  0  0  0 
 25  4  1  0  0  0  0 
 27  4  1  0  0  0  0 
 30 12  1  0  0  0  0 
 31 14  1  0  0  0  0 
M  RAD  1  10   2 
M  END 
>  <HBA> 
5 
 
>  <HBD> 
3 
 
>  <TPSA> 
82.7 
 
>  <cid> 
23842 
 
>  <dipole> 
1.71 
 
>  <excitation_energy_1> 
5.125 
 
>  <excitation_energy_2> 
5.257 
 
>  <excitation_energy_3> 
5.304 
 
>  <excitation_energy_4> 
5.311 
 
>  <homo_energy> 
-6.041 
 
>  <homo_lumo_gap> 
5.834 
 
>  <logP> 
0.952 
 
>  <lumo_energy> 
-0.207 
 
>  <melting_point> 
184.5 
 
>  <molecular_refractivity> 
60.49 
 
>  <oscillator_strength_1> 
0.0505 
 
>  <oscillator_strength_2> 
0.0354 
 
>  <oscillator_strength_3> 
0.0134 
 
>  <oscillator_strength_4> 
0.0343 
 
>  <open_babel_can_smiles> 
CC([N]C1=[N]=C(N/C(=N/C(C)C)/N1)O)C 
 
>  <mulliken_charges> 
32 
1   -0.429551 
2   -0.429766 
3   -0.434964 
4   -0.428904 
5   0.02792 
6   0.012916 
7   0.674582 
8   0.758954 
9   0.723969 
10   -0.508215 
11   -0.500736 
12   -0.724514 
13   -0.55185 
14   -0.678788 
15   -0.600683 
16   0.131597 
17   0.145422 
18   0.140154 
19   0.131832 
20   0.140146 
21   0.145718 
22   0.142162 
23   0.15508 
24   0.14223 
25   0.134826 
26   0.147341 
27   0.150122 
28   0.132727 
29   0.104661 
30   0.351618 
31   0.361844 
32   0.432152 
 
>  <lowdin_charges> 
32 
1   -0.445712 
2   -0.447242 
3   -0.450134 
4   -0.444656 
5   -0.054487 
6   -0.054159 
7   0.124378 
8   0.135165 
9   0.186753 
10   -0.238318 
11   -0.262221 
12   -0.25921 
13   -0.268749 
14   -0.225118 
15   -0.343535 
16   0.145432 
17   0.149913 
18   0.148877 
19   0.145697 
20   0.149918 
21   0.150107 
22   0.151391 
23   0.155922 
24   0.147375 
25   0.147377 
26   0.153121 
27   0.153873 
28   0.134692 
29   0.117669 
30   0.303146 
31   0.314661 
32   0.378075 
 
$$$$ 
 
