PCCDB-ID:  30536 
public computational chemistry database (PCCDB) project, http://pccdb.org 
 
 10  9  0  0  0  0  0  0  0  0999 V2000 
    1.0452   -0.0878   -0.1724 C   0  0  0  0  0  0  0  0  0  0  0  0 
    3.1005    0.1330    1.2720 C   0  0  0  0  0  0  0  0  0  0  0  0 
    2.4701   -0.2054    0.0912 N   0  0  0  0  0  0  0  0  0  0  0  0 
    4.2936    0.3081    1.3658 O   0  0  0  0  0  0  0  0  0  0  0  0 
    2.2882    0.2393    2.3627 O   0  0  0  0  0  0  0  0  0  0  0  0 
    0.8623   -0.3557   -1.2153 H   0  0  0  0  0  0  0  0  0  0  0  0 
    0.6561    0.9272   -0.0073 H   0  0  0  0  0  0  0  0  0  0  0  0 
    0.4649   -0.7939    0.4375 H   0  0  0  0  0  0  0  0  0  0  0  0 
    3.0980   -0.1496   -0.6983 H   0  0  0  0  0  0  0  0  0  0  0  0 
    1.3767   -0.0194    2.1540 H   0  0  0  0  0  0  0  0  0  0  0  0 
  1  7  1  0  0  0  0 
  1  3  1  0  0  0  0 
  1  8  1  0  0  0  0 
  2  4  2  0  0  0  0 
  2  5  1  0  0  0  0 
  3  2  1  0  0  0  0 
  6  1  1  0  0  0  0 
  9  3  1  0  0  0  0 
 10  5  1  0  0  0  0 
M  END 
>  <HBA> 
3 
 
>  <HBD> 
2 
 
>  <TPSA> 
49.33 
 
>  <cid> 
30536 
 
>  <dipole> 
5.34 
 
>  <excitation_energy_1> 
5.979 
 
>  <excitation_energy_2> 
6.532 
 
>  <excitation_energy_3> 
6.724 
 
>  <excitation_energy_4> 
6.8 
 
>  <homo_energy> 
-7.051 
 
>  <homo_lumo_gap> 
8.212 
 
>  <logP> 
0.275 
 
>  <lumo_energy> 
1.162 
 
>  <melting_point> 
90.76 
 
>  <molecular_refractivity> 
16.69 
 
>  <oscillator_strength_1> 
0.0023 
 
>  <oscillator_strength_2> 
0.0136 
 
>  <oscillator_strength_3> 
0.0065 
 
>  <oscillator_strength_4> 
0.0074 
 
>  <open_babel_can_smiles> 
CNC(=O)O 
 
>  <mulliken_charges> 
10 
1   -0.339649 
2   0.718033 
3   -0.5845 
4   -0.482198 
5   -0.581485 
6   0.180035 
7   0.172918 
8   0.162833 
9   0.345103 
10   0.408909 
 
>  <lowdin_charges> 
10 
1   -0.362381 
2   0.201504 
3   -0.312519 
4   -0.285665 
5   -0.367832 
6   0.171646 
7   0.15089 
8   0.152026 
9   0.296598 
10   0.355732 
 
$$$$ 
 
