PCCDB-ID:  21984 
public computational chemistry database (PCCDB) project, http://pccdb.org 
 
 28 27  0  0  0  0  0  0  0  0999 V2000 
    1.4216   -2.3998    0.2373 C   0  0  0  0  0  0  0  0  0  0  0  0 
   -1.8085   -4.0935    0.9829 C   0  0  0  0  0  0  0  0  0  0  0  0 
   -4.5593    1.1448   -2.8286 C   0  0  0  0  0  0  0  0  0  0  0  0 
   -5.3623   -2.4131   -3.6709 C   0  0  0  0  0  0  0  0  0  0  0  0 
    0.0844   -1.8010    0.3711 C   0  0  0  0  0  0  0  0  0  0  0  0 
   -1.0889   -3.8307   -0.2878 C   0  0  0  0  0  0  0  0  0  0  0  0 
   -3.6745   -0.0264   -2.9323 C   0  0  0  0  0  0  0  0  0  0  0  0 
   -5.3789   -1.6792   -2.3809 C   0  0  0  0  0  0  0  0  0  0  0  0 
   -2.1038   -1.6128   -0.6508 C   0  0  0  0  0  0  0  0  0  0  0  0 
   -3.0220   -2.0806   -1.7893 C   0  0  0  0  0  0  0  0  0  0  0  0 
    2.4684   -2.8901    0.1394 N   0  0  0  0  0  0  0  0  0  0  0  0 
   -2.3859   -4.2169    1.9828 N   0  0  0  0  0  0  0  0  0  0  0  0 
   -5.2726    2.0565   -2.7544 N   0  0  0  0  0  0  0  0  0  0  0  0 
   -5.2668   -2.9701   -4.6852 N   0  0  0  0  0  0  0  0  0  0  0  0 
   -0.8717   -2.4090   -0.5625 N   0  0  0  0  0  0  0  0  0  0  0  0 
   -4.0898   -1.0953   -2.0183 N   0  0  0  0  0  0  0  0  0  0  0  0 
    0.1635   -0.7342    0.1360 H   0  0  0  0  0  0  0  0  0  0  0  0 
   -0.2285   -1.8770    1.4280 H   0  0  0  0  0  0  0  0  0  0  0  0 
   -1.6519   -4.2806   -1.1107 H   0  0  0  0  0  0  0  0  0  0  0  0 
   -0.1186   -4.3376   -0.2592 H   0  0  0  0  0  0  0  0  0  0  0  0 
   -2.6611    0.2904   -2.6666 H   0  0  0  0  0  0  0  0  0  0  0  0 
   -3.6418   -0.3521   -3.9875 H   0  0  0  0  0  0  0  0  0  0  0  0 
   -5.6952   -2.3634   -1.5871 H   0  0  0  0  0  0  0  0  0  0  0  0 
   -6.1296   -0.8832   -2.4364 H   0  0  0  0  0  0  0  0  0  0  0  0 
   -2.6762   -1.6077    0.2920 H   0  0  0  0  0  0  0  0  0  0  0  0 
   -1.7972   -0.5782   -0.8403 H   0  0  0  0  0  0  0  0  0  0  0  0 
   -3.5018   -3.0250   -1.5162 H   0  0  0  0  0  0  0  0  0  0  0  0 
   -2.4270   -2.2731   -2.6966 H   0  0  0  0  0  0  0  0  0  0  0  0 
  1  5  1  0  0  0  0 
  2 12  3  0  0  0  0 
  3 13  3  0  0  0  0 
  4  8  1  0  0  0  0 
  5 18  1  0  0  0  0 
  6 20  1  0  0  0  0 
  6  2  1  0  0  0  0 
  7  3  1  0  0  0  0 
  7 21  1  0  0  0  0 
  7 16  1  0  0  0  0 
  8 16  1  0  0  0  0 
  8 23  1  0  0  0  0 
  9 15  1  0  0  0  0 
  9 25  1  0  0  0  0 
 10 27  1  0  0  0  0 
 10  9  1  0  0  0  0 
 11  1  3  0  0  0  0 
 14  4  3  0  0  0  0 
 15  6  1  0  0  0  0 
 15  5  1  0  0  0  0 
 16 10  1  0  0  0  0 
 17  5  1  0  0  0  0 
 19  6  1  0  0  0  0 
 22  7  1  0  0  0  0 
 24  8  1  0  0  0  0 
 26  9  1  0  0  0  0 
 28 10  1  0  0  0  0 
M  END 
>  <HBA> 
6 
 
>  <HBD> 
0 
 
>  <TPSA> 
101.64 
 
>  <cid> 
21984 
 
>  <dipole> 
0.71 
 
>  <excitation_energy_1> 
5.9 
 
>  <excitation_energy_2> 
5.934 
 
>  <excitation_energy_3> 
6.186 
 
>  <excitation_energy_4> 
6.26 
 
>  <homo_energy> 
-7.576 
 
>  <homo_lumo_gap> 
7.083 
 
>  <logP> 
-0.315 
 
>  <lumo_energy> 
-0.493 
 
>  <melting_point> 
111.66 
 
>  <molecular_refractivity> 
54.97 
 
>  <oscillator_strength_1> 
0.0031 
 
>  <oscillator_strength_2> 
0.0079 
 
>  <oscillator_strength_3> 
0.0048 
 
>  <oscillator_strength_4> 
0.0085 
 
>  <open_babel_can_smiles> 
N#CCN(CC#N)CCN(CC#N)CC#N 
 
>  <mulliken_charges> 
28 
1   0.363854 
2   0.347145 
3   0.36752 
4   0.344915 
5   -0.194719 
6   -0.243793 
7   -0.211653 
8   -0.24037 
9   -0.126149 
10   -0.163186 
11   -0.462182 
12   -0.455202 
13   -0.45902 
14   -0.45222 
15   -0.388118 
16   -0.378197 
17   0.205164 
18   0.201021 
19   0.212995 
20   0.230291 
21   0.203987 
22   0.204303 
23   0.214447 
24   0.227373 
25   0.166292 
26   0.153053 
27   0.16571 
28   0.16674 
 
>  <lowdin_charges> 
28 
1   -0.021289 
2   -0.041555 
3   -0.02156 
4   -0.042252 
5   -0.193005 
6   -0.207114 
7   -0.196133 
8   -0.203446 
9   -0.209124 
10   -0.20919 
11   -0.1014 
12   -0.10929 
13   -0.1011 
14   -0.109275 
15   -0.165746 
16   -0.161385 
17   0.186045 
18   0.169797 
19   0.188701 
20   0.198091 
21   0.185212 
22   0.17142 
23   0.190425 
24   0.196156 
25   0.147023 
26   0.151726 
27   0.159088 
28   0.149179 
 
$$$$ 
 
