PCCDB-ID:  12198 
public computational chemistry database (PCCDB) project, http://pccdb.org 
 
 23 22  0  0  1  0  0  0  0  0999 V2000 
    0.1583   -0.5986   -0.9980 C   0  0  0  0  0  0  0  0  0  0  0  0 
    2.9987    3.2821   -1.8253 C   0  0  0  0  0  0  0  0  0  0  0  0 
    2.0513   -4.1815    0.8266 C   0  0  0  0  0  0  0  0  0  0  0  0 
    2.0734    0.4288    0.3479 C   0  0  0  0  0  0  0  0  0  0  0  0 
    1.5936   -0.7435   -0.5098 C   0  0  1  0  0  0  0  0  0  0  0  0 
    3.1709    1.9665   -1.1047 C   0  0  0  0  0  0  0  0  0  0  0  0 
    1.9111   -3.0997   -0.2188 C   0  0  0  0  0  0  0  0  0  0  0  0 
    4.1621    1.2731   -1.1276 O   0  0  0  0  0  0  0  0  0  0  0  0 
    1.9655   -3.2673   -1.4163 O   0  0  0  0  0  0  0  0  0  0  0  0 
    2.0449    1.6554   -0.4066 O   0  0  0  0  0  0  0  0  0  0  0  0 
    1.7144   -1.8921    0.3695 O   0  0  0  0  0  0  0  0  0  0  0  0 
    0.0584    0.3083   -1.6028 H   0  0  0  0  0  0  0  0  0  0  0  0 
   -0.5318   -0.5260   -0.1496 H   0  0  0  0  0  0  0  0  0  0  0  0 
   -0.1215   -1.4585   -1.6121 H   0  0  0  0  0  0  0  0  0  0  0  0 
    2.7733    4.0779   -1.1080 H   0  0  0  0  0  0  0  0  0  0  0  0 
    2.1555    3.2221   -2.5213 H   0  0  0  0  0  0  0  0  0  0  0  0 
    3.9128    3.5191   -2.3704 H   0  0  0  0  0  0  0  0  0  0  0  0 
    2.9099   -3.9701    1.4725 H   0  0  0  0  0  0  0  0  0  0  0  0 
    2.1857   -5.1454    0.3351 H   0  0  0  0  0  0  0  0  0  0  0  0 
    1.1618   -4.2077    1.4645 H   0  0  0  0  0  0  0  0  0  0  0  0 
    3.0859    0.2393    0.7091 H   0  0  0  0  0  0  0  0  0  0  0  0 
    1.3991    0.5902    1.1929 H   0  0  0  0  0  0  0  0  0  0  0  0 
    2.2735   -0.8847   -1.3537 H   0  0  0  0  0  0  0  0  0  0  0  0 
  1  5  1  0  0  0  0 
  1 13  1  0  0  0  0 
  2 15  1  0  0  0  0 
  2  6  1  0  0  0  0 
  3 20  1  0  0  0  0 
  3 18  1  0  0  0  0 
  4 21  1  0  0  0  0 
  4 22  1  0  0  0  0 
  5 23  1  6  0  0  0 
  5  4  1  0  0  0  0 
  5 11  1  0  0  0  0 
  6 10  1  0  0  0  0 
  7 11  1  0  0  0  0 
  7  3  1  0  0  0  0 
  8  6  2  0  0  0  0 
  9  7  2  0  0  0  0 
 10  4  1  0  0  0  0 
 12  1  1  0  0  0  0 
 14  1  1  0  0  0  0 
 16  2  1  0  0  0  0 
 17  2  1  0  0  0  0 
 19  3  1  0  0  0  0 
M  END 
>  <HBA> 
4 
 
>  <HBD> 
0 
 
>  <TPSA> 
52.6 
 
>  <cid> 
12198 
 
>  <dipole> 
2.8 
 
>  <excitation_energy_1> 
5.803 
 
>  <excitation_energy_2> 
5.816 
 
>  <excitation_energy_3> 
6.962 
 
>  <excitation_energy_4> 
7.087 
 
>  <homo_energy> 
-7.396 
 
>  <homo_lumo_gap> 
7.578 
 
>  <logP> 
0.501 
 
>  <lumo_energy> 
0.182 
 
>  <melting_point> 
-2.34 
 
>  <molecular_refractivity> 
38.33 
 
>  <oscillator_strength_1> 
0.0011 
 
>  <oscillator_strength_2> 
0.0011 
 
>  <oscillator_strength_3> 
0.0031 
 
>  <oscillator_strength_4> 
0.0069 
 
>  <open_babel_can_smiles> 
CC(=O)OC[C@@H](OC(=O)C)C 
 
>  <mulliken_charges> 
23 
1   -0.463504 
2   -0.523829 
3   -0.524194 
4   -0.059672 
5   0.109255 
6   0.599716 
7   0.607933 
8   -0.459336 
9   -0.463379 
10   -0.457051 
11   -0.473049 
12   0.15994 
13   0.148712 
14   0.176512 
15   0.184203 
16   0.183445 
17   0.185827 
18   0.183758 
19   0.18407 
20   0.180904 
21   0.18061 
22   0.157619 
23   0.181511 
 
>  <lowdin_charges> 
23 
1   -0.457326 
2   -0.465903 
3   -0.463525 
4   -0.14003 
5   -0.003551 
6   0.203008 
7   0.201692 
8   -0.258082 
9   -0.259679 
10   -0.199644 
11   -0.201218 
12   0.162874 
13   0.153588 
14   0.168975 
15   0.179923 
16   0.179275 
17   0.177843 
18   0.179387 
19   0.176354 
20   0.177529 
21   0.165946 
22   0.157159 
23   0.165404 
 
$$$$ 
 
