PCCDB-ID:  20264 
public computational chemistry database (PCCDB) project, http://pccdb.org 
 
 28 27  0  0  0  0  0  0  0  0999 V2000 
    1.8234   -1.8743    0.3637 C   0  0  0  0  0  0  0  0  0  0  0  0 
    3.3203    1.7715    0.4660 C   0  0  0  0  0  0  0  0  0  0  0  0 
    2.1613   -0.4215    0.0173 C   0  0  0  0  0  0  0  0  0  0  0  0 
    3.5915    1.3734    3.5907 C   0  0  0  0  0  0  0  0  0  0  0  0 
    5.5421   -0.2242   -0.7477 C   0  0  0  0  0  0  0  0  0  0  0  0 
    3.1162    2.8333    3.5591 C   0  0  0  0  0  0  0  0  0  0  0  0 
    6.2400    1.1273   -0.9509 C   0  0  0  0  0  0  0  0  0  0  0  0 
    3.1899    0.3115    0.9108 C   0  0  0  0  0  0  0  0  0  0  0  0 
    3.8689    3.7409    3.8079 O   0  0  0  0  0  0  0  0  0  0  0  0 
    1.8120    3.0407    3.2890 O   0  0  0  0  0  0  0  0  0  0  0  0 
    6.3477    1.6206   -2.0458 O   0  0  0  0  0  0  0  0  0  0  0  0 
    6.7665    1.7033    0.1469 O   0  0  0  0  0  0  0  0  0  0  0  0 
    2.5898    0.1457    2.6695 S   0  0  0  0  0  0  0  0  0  0  0  0 
    4.8467   -0.5763    0.9174 S   0  0  0  0  0  0  0  0  0  0  0  0 
    1.1464   -2.2826   -0.3942 H   0  0  0  0  0  0  0  0  0  0  0  0 
    1.3218   -1.9601    1.3331 H   0  0  0  0  0  0  0  0  0  0  0  0 
    2.7209   -2.4991    0.3907 H   0  0  0  0  0  0  0  0  0  0  0  0 
    2.3574    2.2830    0.5664 H   0  0  0  0  0  0  0  0  0  0  0  0 
    3.6100    1.8210   -0.5895 H   0  0  0  0  0  0  0  0  0  0  0  0 
    4.0667    2.3263    1.0390 H   0  0  0  0  0  0  0  0  0  0  0  0 
    1.2448    0.1833    0.0269 H   0  0  0  0  0  0  0  0  0  0  0  0 
    2.5411   -0.3710   -1.0116 H   0  0  0  0  0  0  0  0  0  0  0  0 
    3.5573    1.0360    4.6334 H   0  0  0  0  0  0  0  0  0  0  0  0 
    4.6375    1.3376    3.2807 H   0  0  0  0  0  0  0  0  0  0  0  0 
    6.2931   -1.0091   -0.9002 H   0  0  0  0  0  0  0  0  0  0  0  0 
    4.7948   -0.3464   -1.5342 H   0  0  0  0  0  0  0  0  0  0  0  0 
    1.3955    2.1820    3.0699 H   0  0  0  0  0  0  0  0  0  0  0  0 
    6.5082    1.1765    0.9307 H   0  0  0  0  0  0  0  0  0  0  0  0 
  1 17  1  0  0  0  0 
  1 16  1  0  0  0  0 
  2 18  1  0  0  0  0 
  2  8  1  0  0  0  0 
  2 20  1  0  0  0  0 
  3 21  1  0  0  0  0 
  3  1  1  0  0  0  0 
  3  8  1  0  0  0  0 
  4 23  1  0  0  0  0 
  5 14  1  0  0  0  0 
  6  4  1  0  0  0  0 
  6  9  2  0  0  0  0 
  7  5  1  0  0  0  0 
  7 12  1  0  0  0  0 
  8 14  1  0  0  0  0 
  8 13  1  0  0  0  0 
 10  6  1  0  0  0  0 
 11  7  2  0  0  0  0 
 12 28  1  0  0  0  0 
 13  4  1  0  0  0  0 
 15  1  1  0  0  0  0 
 19  2  1  0  0  0  0 
 22  3  1  0  0  0  0 
 24  4  1  0  0  0  0 
 25  5  1  0  0  0  0 
 26  5  1  0  0  0  0 
 27 10  1  0  0  0  0 
M  END 
>  <HBA> 
6 
 
>  <HBD> 
2 
 
>  <TPSA> 
125.2 
 
>  <cid> 
20264 
 
>  <dipole> 
5.87 
 
>  <excitation_energy_1> 
5.326 
 
>  <excitation_energy_2> 
5.385 
 
>  <excitation_energy_3> 
5.609 
 
>  <excitation_energy_4> 
5.644 
 
>  <homo_energy> 
-7.056 
 
>  <homo_lumo_gap> 
6.727 
 
>  <logP> 
1.748 
 
>  <lumo_energy> 
-0.329 
 
>  <melting_point> 
155.39 
 
>  <molecular_refractivity> 
59.33 
 
>  <oscillator_strength_1> 
0.0016 
 
>  <oscillator_strength_2> 
0.001 
 
>  <oscillator_strength_3> 
0.0025 
 
>  <oscillator_strength_4> 
0.0087 
 
>  <open_babel_can_smiles> 
CCC(SCC(=O)O)(SCC(=O)O)C 
 
>  <mulliken_charges> 
28 
1   -0.463445 
2   -0.476965 
3   -0.25908 
4   -0.54802 
5   -0.550838 
6   0.601071 
7   0.60117 
8   -0.220622 
9   -0.432876 
10   -0.558948 
11   -0.436267 
12   -0.555346 
13   0.103637 
14   0.091987 
15   0.15556 
16   0.172517 
17   0.177876 
18   0.179075 
19   0.183383 
20   0.187702 
21   0.162618 
22   0.156436 
23   0.225908 
24   0.22115 
25   0.224626 
26   0.213653 
27   0.422534 
28   0.421503 
 
>  <lowdin_charges> 
28 
1   -0.452054 
2   -0.45612 
3   -0.277688 
4   -0.424705 
5   -0.434629 
6   0.186024 
7   0.180823 
8   -0.166348 
9   -0.235955 
10   -0.350896 
11   -0.237633 
12   -0.347206 
13   0.12057 
14   0.096222 
15   0.160297 
16   0.161262 
17   0.165158 
18   0.169287 
19   0.169487 
20   0.1723 
21   0.158642 
22   0.15296 
23   0.201552 
24   0.191124 
25   0.202551 
26   0.187348 
27   0.353296 
28   0.35433 
 
$$$$ 
 
