PCCDB-ID:  9132 
public computational chemistry database (PCCDB) project, http://pccdb.org 
 
 25 28  0  0  0  0  0  0  0  0999 V2000 
    3.5215    0.0093    0.0015 C   0  0  0  0  0  0  0  0  0  0  0  0 
    2.8338   -1.2042    0.0007 C   0  0  0  0  0  0  0  0  0  0  0  0 
    2.8344    1.2230    0.0036 C   0  0  0  0  0  0  0  0  0  0  0  0 
    0.6720   -2.4548   -0.0010 C   0  0  0  0  0  0  0  0  0  0  0  0 
    0.6732    2.4747    0.0014 C   0  0  0  0  0  0  0  0  0  0  0  0 
   -0.6908   -2.4502   -0.0022 C   0  0  0  0  0  0  0  0  0  0  0  0 
   -0.6896    2.4707    0.0034 C   0  0  0  0  0  0  0  0  0  0  0  0 
   -2.8242   -1.1350   -0.0007 C   0  0  0  0  0  0  0  0  0  0  0  0 
   -2.8237    1.1566    0.0002 C   0  0  0  0  0  0  0  0  0  0  0  0 
    1.4297   -1.2301    0.0009 C   0  0  0  0  0  0  0  0  0  0  0  0 
    1.4303    1.2496    0.0034 C   0  0  0  0  0  0  0  0  0  0  0  0 
   -1.4218   -1.2137   -0.0019 C   0  0  0  0  0  0  0  0  0  0  0  0 
   -1.4212    1.2346    0.0024 C   0  0  0  0  0  0  0  0  0  0  0  0 
    0.7241    0.0099    0.0022 C   0  0  0  0  0  0  0  0  0  0  0  0 
   -0.6984    0.0103    0.0005 C   0  0  0  0  0  0  0  0  0  0  0  0 
   -3.5123    0.0109   -0.0009 N   0  0  0  0  0  0  0  0  0  0  0  0 
    4.6082    0.0090   -0.0018 H   0  0  0  0  0  0  0  0  0  0  0  0 
    3.3840   -2.1418   -0.0007 H   0  0  0  0  0  0  0  0  0  0  0  0 
    3.3851    2.1604    0.0038 H   0  0  0  0  0  0  0  0  0  0  0  0 
    1.2196   -3.3942   -0.0004 H   0  0  0  0  0  0  0  0  0  0  0  0 
    1.2211    3.4139   -0.0054 H   0  0  0  0  0  0  0  0  0  0  0  0 
   -1.2491   -3.3831   -0.0008 H   0  0  0  0  0  0  0  0  0  0  0  0 
   -1.2475    3.4039    0.0045 H   0  0  0  0  0  0  0  0  0  0  0  0 
   -3.4165   -2.0500    0.0023 H   0  0  0  0  0  0  0  0  0  0  0  0 
   -3.4156    2.0718   -0.0004 H   0  0  0  0  0  0  0  0  0  0  0  0 
  1  3  1  0  0  0  0 
  2 10  1  0  0  0  0 
  2  1  2  0  0  0  0 
  3 19  1  0  0  0  0 
  4 20  1  0  0  0  0 
  4 10  2  0  0  0  0 
  5  7  2  0  0  0  0 
  5 11  1  0  0  0  0 
  6 12  2  0  0  0  0 
  6  4  1  0  0  0  0 
  6 22  1  0  0  0  0 
  7 23  1  0  0  0  0 
  8 24  1  0  0  0  0 
  9 13  2  0  0  0  0 
 10 14  1  0  0  0  0 
 11  3  2  0  0  0  0 
 12  8  1  0  0  0  0 
 12 15  1  0  0  0  0 
 13  7  1  0  0  0  0 
 14 11  1  0  0  0  0 
 15 14  2  0  0  0  0 
 15 13  1  0  0  0  0 
 16  8  2  0  0  0  0 
 16  9  1  0  0  0  0 
 17  1  1  0  0  0  0 
 18  2  1  0  0  0  0 
 21  5  1  0  0  0  0 
 25  9  1  0  0  0  0 
M  END 
>  <HBA> 
1 
 
>  <HBD> 
0 
 
>  <TPSA> 
12.89 
 
>  <cid> 
9132 
 
>  <dipole> 
2.79 
 
>  <excitation_energy_1> 
3.687 
 
>  <excitation_energy_2> 
3.735 
 
>  <excitation_energy_3> 
4.157 
 
>  <excitation_energy_4> 
4.316 
 
>  <homo_energy> 
-5.587 
 
>  <homo_lumo_gap> 
3.853 
 
>  <logP> 
3.979 
 
>  <lumo_energy> 
-1.733 
 
>  <melting_point> 
153.06 
 
>  <molecular_refractivity> 
67.94 
 
>  <oscillator_strength_1> 
0.2781 
 
>  <oscillator_strength_2> 
0.0231 
 
>  <oscillator_strength_3> 
0.0 
 
>  <oscillator_strength_4> 
0.0017 
 
>  <open_babel_can_smiles> 
c1cc2ccc3c4c2c(c1)ccc4cnc3 
 
>  <mulliken_charges> 
25 
1   -0.1178 
2   -0.225564 
3   -0.225532 
4   -0.190399 
5   -0.190405 
6   -0.198601 
7   -0.198592 
8   -0.037532 
9   -0.037563 
10   0.163139 
11   0.163099 
12   0.134142 
13   0.134159 
14   0.00801 
15   0.008229 
16   -0.419595 
17   0.135116 
18   0.133714 
19   0.133706 
20   0.134936 
21   0.134938 
22   0.138268 
23   0.138266 
24   0.14093 
25   0.14093 
 
>  <lowdin_charges> 
25 
1   -0.147501 
2   -0.160332 
3   -0.160336 
4   -0.15408 
5   -0.154085 
6   -0.151045 
7   -0.151041 
8   -0.0971 
9   -0.0971 
10   0.004619 
11   0.004619 
12   -0.020208 
13   -0.020206 
14   -0.003281 
15   0.010947 
16   -0.147044 
17   0.159489 
18   0.160295 
19   0.160298 
20   0.161584 
21   0.161588 
22   0.163524 
23   0.163521 
24   0.156436 
25   0.156436 
 
$$$$ 
 
