PCCDB-ID:  18398 
public computational chemistry database (PCCDB) project, http://pccdb.org 
 
 18 18  0  0  0  0  0  0  0  0999 V2000 
    1.0455   -0.0672   -0.0147 C   0  0  0  0  0  0  0  0  0  0  0  0 
    3.0067   -0.0665    1.5847 C   0  0  0  0  0  0  0  0  0  0  0  0 
    3.9644    1.0793   -1.6394 C   0  0  0  0  0  0  0  0  0  0  0  0 
    3.0505    1.4750   -0.4724 C   0  0  0  0  0  0  0  0  0  0  0  0 
    3.9885   -0.4450   -1.6425 C   0  0  0  0  0  0  0  0  0  0  0  0 
    2.5545    0.1250    0.1373 C   0  0  0  0  0  0  0  0  0  0  0  0 
    4.5974   -1.1676   -2.3889 O   0  0  0  0  0  0  0  0  0  0  0  0 
    3.1965   -0.9230   -0.6487 O   0  0  0  0  0  0  0  0  0  0  0  0 
    0.5047    0.6791    0.5783 H   0  0  0  0  0  0  0  0  0  0  0  0 
    0.7469   -1.0639    0.3253 H   0  0  0  0  0  0  0  0  0  0  0  0 
    0.7454    0.0417   -1.0626 H   0  0  0  0  0  0  0  0  0  0  0  0 
    2.5425    0.6866    2.2317 H   0  0  0  0  0  0  0  0  0  0  0  0 
    4.0946    0.0322    1.6657 H   0  0  0  0  0  0  0  0  0  0  0  0 
    2.7245   -1.0591    1.9498 H   0  0  0  0  0  0  0  0  0  0  0  0 
    4.9915    1.4431   -1.5383 H   0  0  0  0  0  0  0  0  0  0  0  0 
    3.6049    1.4219   -2.6149 H   0  0  0  0  0  0  0  0  0  0  0  0 
    2.2019    2.0786   -0.8070 H   0  0  0  0  0  0  0  0  0  0  0  0 
    3.5858    2.0601    0.2810 H   0  0  0  0  0  0  0  0  0  0  0  0 
  1  6  1  0  0  0  0 
  1 10  1  0  0  0  0 
  1  9  1  0  0  0  0 
  2 13  1  0  0  0  0 
  2 14  1  0  0  0  0 
  2 12  1  0  0  0  0 
  3 15  1  0  0  0  0 
  3  4  1  0  0  0  0 
  4  6  1  0  0  0  0 
  4 18  1  0  0  0  0 
  5  3  1  0  0  0  0 
  5  8  1  0  0  0  0 
  6  2  1  0  0  0  0 
  7  5  2  0  0  0  0 
  8  6  1  0  0  0  0 
 11  1  1  0  0  0  0 
 16  3  1  0  0  0  0 
 17  4  1  0  0  0  0 
M  END 
>  <HBA> 
2 
 
>  <HBD> 
0 
 
>  <TPSA> 
26.3 
 
>  <cid> 
18398 
 
>  <dipole> 
4.52 
 
>  <excitation_energy_1> 
5.688 
 
>  <excitation_energy_2> 
6.59 
 
>  <excitation_energy_3> 
7.205 
 
>  <excitation_energy_4> 
7.238 
 
>  <homo_energy> 
-7.097 
 
>  <homo_lumo_gap> 
7.565 
 
>  <logP> 
1.102 
 
>  <lumo_energy> 
0.468 
 
>  <melting_point> 
19.48 
 
>  <molecular_refractivity> 
30.16 
 
>  <oscillator_strength_1> 
0.0001 
 
>  <oscillator_strength_2> 
0.0142 
 
>  <oscillator_strength_3> 
0.0102 
 
>  <oscillator_strength_4> 
0.013 
 
>  <open_babel_can_smiles> 
O=C1CCC(O1)(C)C 
 
>  <mulliken_charges> 
18 
1   -0.450886 
2   -0.451204 
3   -0.38746 
4   -0.326955 
5   0.603691 
6   0.309741 
7   -0.457584 
8   -0.456764 
9   0.147324 
10   0.163904 
11   0.152503 
12   0.147303 
13   0.153085 
14   0.163599 
15   0.186795 
16   0.186689 
17   0.158069 
18   0.15815 
 
>  <lowdin_charges> 
18 
1   -0.44819 
2   -0.447179 
3   -0.314949 
4   -0.295879 
5   0.190367 
6   0.132489 
7   -0.245872 
8   -0.185716 
9   0.156358 
10   0.161447 
11   0.15502 
12   0.156288 
13   0.154628 
14   0.161341 
15   0.176099 
16   0.17663 
17   0.158397 
18   0.158721 
 
$$$$ 
 
