PCCDB-ID:  11959 
public computational chemistry database (PCCDB) project, http://pccdb.org 
 
 22 22  0  0  0  0  0  0  0  0999 V2000 
    4.2678    1.9511   -3.9138 C   0  0  0  0  0  0  0  0  0  0  0  0 
    4.1580    1.8637   -2.3885 C   0  0  0  0  0  0  0  0  0  0  0  0 
    7.3514    0.4039    1.5390 C   0  0  0  0  0  0  0  0  0  0  0  0 
    7.2441   -0.7591    0.7734 C   0  0  0  0  0  0  0  0  0  0  0  0 
    6.3719    1.3939    1.4389 C   0  0  0  0  0  0  0  0  0  0  0  0 
    6.1584   -0.9330   -0.0839 C   0  0  0  0  0  0  0  0  0  0  0  0 
    5.2912    1.2271    0.5729 C   0  0  0  0  0  0  0  0  0  0  0  0 
    5.1739    0.0626   -0.1996 C   0  0  0  0  0  0  0  0  0  0  0  0 
    4.0058   -0.1500   -1.1151 C   0  0  0  0  0  0  0  0  0  0  0  0 
    3.5322    0.6084   -2.0113 N   0  0  0  0  0  0  0  0  0  0  0  0 
    3.3922   -1.3701   -0.9579 O   0  0  0  0  0  0  0  0  0  0  0  0 
    4.6858    2.9186   -4.2160 H   0  0  0  0  0  0  0  0  0  0  0  0 
    3.2827    1.8332   -4.3760 H   0  0  0  0  0  0  0  0  0  0  0  0 
    4.9187    1.1592   -4.3002 H   0  0  0  0  0  0  0  0  0  0  0  0 
    3.5172    2.6838   -2.0331 H   0  0  0  0  0  0  0  0  0  0  0  0 
    5.1510    2.0156   -1.9380 H   0  0  0  0  0  0  0  0  0  0  0  0 
    8.1941    0.5374    2.2118 H   0  0  0  0  0  0  0  0  0  0  0  0 
    8.0053   -1.5313    0.8442 H   0  0  0  0  0  0  0  0  0  0  0  0 
    6.4466    2.2966    2.0390 H   0  0  0  0  0  0  0  0  0  0  0  0 
    6.0801   -1.8346   -0.6863 H   0  0  0  0  0  0  0  0  0  0  0  0 
    4.5239    1.9926    0.5067 H   0  0  0  0  0  0  0  0  0  0  0  0 
    3.7033   -1.7619   -0.1267 H   0  0  0  0  0  0  0  0  0  0  0  0 
  1  2  1  0  0  0  0 
  2 15  1  0  0  0  0 
  2 10  1  0  0  0  0 
  2 16  1  0  0  0  0 
  3 17  1  0  0  0  0 
  4 18  1  0  0  0  0 
  4  3  2  0  0  0  0 
  5  3  1  0  0  0  0 
  5 19  1  0  0  0  0 
  6  4  1  0  0  0  0 
  7  5  2  0  0  0  0 
  8  6  2  0  0  0  0 
  8  7  1  0  0  0  0 
  9 11  1  0  0  0  0 
  9  8  1  0  0  0  0 
 10  9  2  0  0  0  0 
 11 22  1  0  0  0  0 
 12  1  1  0  0  0  0 
 13  1  1  0  0  0  0 
 14  1  1  0  0  0  0 
 20  6  1  0  0  0  0 
 21  7  1  0  0  0  0 
M  END 
>  <HBA> 
2 
 
>  <HBD> 
1 
 
>  <TPSA> 
29.1 
 
>  <cid> 
11959 
 
>  <dipole> 
3.99 
 
>  <excitation_energy_1> 
4.603 
 
>  <excitation_energy_2> 
5.071 
 
>  <excitation_energy_3> 
5.092 
 
>  <excitation_energy_4> 
5.229 
 
>  <homo_energy> 
-6.514 
 
>  <homo_lumo_gap> 
5.649 
 
>  <logP> 
1.827 
 
>  <lumo_energy> 
-0.865 
 
>  <melting_point> 
64.73 
 
>  <molecular_refractivity> 
44.25 
 
>  <oscillator_strength_1> 
0.0025 
 
>  <oscillator_strength_2> 
0.1133 
 
>  <oscillator_strength_3> 
0.0045 
 
>  <oscillator_strength_4> 
0.0162 
 
>  <open_babel_can_smiles> 
CC/N=C(\c1ccccc1)/O 
 
>  <mulliken_charges> 
22 
1   -0.430608 
2   -0.146947 
3   -0.122701 
4   -0.12948 
5   -0.133832 
6   -0.180773 
7   -0.155945 
8   0.043766 
9   0.413218 
10   -0.401619 
11   -0.5821 
12   0.133177 
13   0.158511 
14   0.146729 
15   0.140143 
16   0.127122 
17   0.139129 
18   0.139968 
19   0.14021 
20   0.149407 
21   0.151208 
22   0.401416 
 
>  <lowdin_charges> 
22 
1   -0.44584 
2   -0.199283 
3   -0.147752 
4   -0.153094 
5   -0.151645 
6   -0.16328 
7   -0.15074 
8   -0.045491 
9   0.122947 
10   -0.194733 
11   -0.373184 
12   0.146046 
13   0.15629 
14   0.151298 
15   0.143705 
16   0.128926 
17   0.162748 
18   0.163311 
19   0.162969 
20   0.165653 
21   0.168781 
22   0.352371 
 
$$$$ 
 
