PCCDB-ID:  23229 
public computational chemistry database (PCCDB) project, http://pccdb.org 
 
 22 22  0  0  0  0  0  0  0  0999 V2000 
    1.1205    0.1658   -0.7269 C   0  0  0  0  0  0  0  0  0  0  0  0 
    6.9706    0.5641    2.6028 C   0  0  0  0  0  0  0  0  0  0  0  0 
    3.2375    3.5711    1.0860 C   0  0  0  0  0  0  0  0  0  0  0  0 
    2.5689    2.4866    0.5129 C   0  0  0  0  0  0  0  0  0  0  0  0 
    4.4556    3.3773    1.7284 C   0  0  0  0  0  0  0  0  0  0  0  0 
    4.3481    1.0159    1.2305 C   0  0  0  0  0  0  0  0  0  0  0  0 
    2.4509   -0.0074   -0.0139 C   0  0  0  0  0  0  0  0  0  0  0  0 
    6.3417    1.9431    2.5126 C   0  0  0  0  0  0  0  0  0  0  0  0 
    3.1189    1.1989    0.5800 C   0  0  0  0  0  0  0  0  0  0  0  0 
    5.0236    2.0938    1.8064 C   0  0  0  0  0  0  0  0  0  0  0  0 
    2.9708   -1.1090    0.0756 O   0  0  0  0  0  0  0  0  0  0  0  0 
    6.8925    2.9165    3.0030 O   0  0  0  0  0  0  0  0  0  0  0  0 
    0.3615    0.5785   -0.0515 H   0  0  0  0  0  0  0  0  0  0  0  0 
    0.7890   -0.8082   -1.0901 H   0  0  0  0  0  0  0  0  0  0  0  0 
    1.2140    0.8562   -1.5739 H   0  0  0  0  0  0  0  0  0  0  0  0 
    6.3123   -0.1351    3.1322 H   0  0  0  0  0  0  0  0  0  0  0  0 
    7.9177    0.6457    3.1385 H   0  0  0  0  0  0  0  0  0  0  0  0 
    7.1506    0.1466    1.6051 H   0  0  0  0  0  0  0  0  0  0  0  0 
    2.8044    4.5657    1.0291 H   0  0  0  0  0  0  0  0  0  0  0  0 
    1.6184    2.6502    0.0145 H   0  0  0  0  0  0  0  0  0  0  0  0 
    4.9937    4.2041    2.1808 H   0  0  0  0  0  0  0  0  0  0  0  0 
    4.7473    0.0081    1.2661 H   0  0  0  0  0  0  0  0  0  0  0  0 
  1 13  1  0  0  0  0 
  1  7  1  0  0  0  0 
  2 16  1  0  0  0  0 
  2 17  1  0  0  0  0 
  3  5  2  0  0  0  0 
  4  9  2  0  0  0  0 
  4  3  1  0  0  0  0 
  5 10  1  0  0  0  0 
  5 21  1  0  0  0  0 
  6 22  1  0  0  0  0 
  6 10  2  0  0  0  0 
  7 11  2  0  0  0  0 
  7  9  1  0  0  0  0 
  8  2  1  0  0  0  0 
  8 12  2  0  0  0  0 
  9  6  1  0  0  0  0 
 10  8  1  0  0  0  0 
 14  1  1  0  0  0  0 
 15  1  1  0  0  0  0 
 18  2  1  0  0  0  0 
 19  3  1  0  0  0  0 
 20  4  1  0  0  0  0 
M  END 
>  <HBA> 
2 
 
>  <HBD> 
0 
 
>  <TPSA> 
34.14 
 
>  <cid> 
23229 
 
>  <dipole> 
2.89 
 
>  <excitation_energy_1> 
3.661 
 
>  <excitation_energy_2> 
3.75 
 
>  <excitation_energy_3> 
4.462 
 
>  <excitation_energy_4> 
4.538 
 
>  <homo_energy> 
-6.833 
 
>  <homo_lumo_gap> 
4.944 
 
>  <logP> 
2.092 
 
>  <lumo_energy> 
-1.888 
 
>  <melting_point> 
74.11 
 
>  <molecular_refractivity> 
46.83 
 
>  <oscillator_strength_1> 
0.0001 
 
>  <oscillator_strength_2> 
0.0 
 
>  <oscillator_strength_3> 
0.0001 
 
>  <oscillator_strength_4> 
0.0125 
 
>  <open_babel_can_smiles> 
CC(=O)c1cccc(c1)C(=O)C 
 
>  <mulliken_charges> 
22 
1   -0.544887 
2   -0.542903 
3   -0.132701 
4   -0.177614 
5   -0.148209 
6   -0.224651 
7   0.414543 
8   0.413185 
9   0.074816 
10   0.075473 
11   -0.450969 
12   -0.450502 
13   0.172985 
14   0.185124 
15   0.173064 
16   0.177143 
17   0.182604 
18   0.176924 
19   0.144117 
20   0.1418 
21   0.171406 
22   0.169249 
 
>  <lowdin_charges> 
22 
1   -0.477371 
2   -0.476038 
3   -0.155531 
4   -0.134324 
5   -0.113986 
6   -0.121616 
7   0.163949 
8   0.165305 
9   -0.053934 
10   -0.051117 
11   -0.240173 
12   -0.239273 
13   0.172113 
14   0.177 
15   0.171581 
16   0.174877 
17   0.175847 
18   0.172964 
19   0.164252 
20   0.164585 
21   0.181484 
22   0.179406 
 
$$$$ 
 
