PCCDB-ID:  25918 
public computational chemistry database (PCCDB) project, http://pccdb.org 
 
 21 20  0  0  0  0  0  0  0  0999 V2000 
    2.9118   -2.0730   -0.2638 C   0  0  0  0  0  0  0  0  0  0  0  0 
    0.8501   -0.6077   -0.4899 C   0  0  0  0  0  0  0  0  0  0  0  0 
    6.5016    1.1133   -0.6320 C   0  0  0  0  0  0  0  0  0  0  0  0 
    7.1860    1.8972   -1.6578 C   0  0  0  0  0  0  0  0  0  0  0  0 
    2.9891    0.3959    0.3204 C   0  0  0  0  0  0  0  0  0  0  0  0 
    2.3815   -0.6713   -0.5925 C   0  0  0  0  0  0  0  0  0  0  0  0 
    4.9748    1.2037   -0.7216 C   0  0  0  0  0  0  0  0  0  0  0  0 
    7.7630    2.5068   -2.4575 N   0  0  0  0  0  0  0  0  0  0  0  0 
    4.3585    1.8695   -1.5168 O   0  0  0  0  0  0  0  0  0  0  0  0 
    4.4404    0.4277    0.2392 O   0  0  0  0  0  0  0  0  0  0  0  0 
    2.4975   -2.8165   -0.9537 H   0  0  0  0  0  0  0  0  0  0  0  0 
    2.6306   -2.3702    0.7551 H   0  0  0  0  0  0  0  0  0  0  0  0 
    4.0033   -2.1163   -0.3357 H   0  0  0  0  0  0  0  0  0  0  0  0 
    0.3886   -1.3279   -1.1738 H   0  0  0  0  0  0  0  0  0  0  0  0 
    0.4690    0.3877   -0.7458 H   0  0  0  0  0  0  0  0  0  0  0  0 
    0.5099   -0.8502    0.5252 H   0  0  0  0  0  0  0  0  0  0  0  0 
    6.8145    1.4492    0.3641 H   0  0  0  0  0  0  0  0  0  0  0  0 
    6.7987    0.0605   -0.7067 H   0  0  0  0  0  0  0  0  0  0  0  0 
    2.7853    0.1772    1.3729 H   0  0  0  0  0  0  0  0  0  0  0  0 
    2.6077    1.3891    0.0718 H   0  0  0  0  0  0  0  0  0  0  0  0 
    2.6666   -0.4165   -1.6219 H   0  0  0  0  0  0  0  0  0  0  0  0 
  1 12  1  0  0  0  0 
  2 16  1  0  0  0  0 
  3 17  1  0  0  0  0 
  4  3  1  0  0  0  0 
  5 19  1  0  0  0  0 
  6  2  1  0  0  0  0 
  6  1  1  0  0  0  0 
  6  5  1  0  0  0  0 
  7  3  1  0  0  0  0 
  7 10  1  0  0  0  0 
  8  4  3  0  0  0  0 
  9  7  2  0  0  0  0 
 10  5  1  0  0  0  0 
 11  1  1  0  0  0  0 
 13  1  1  0  0  0  0 
 14  2  1  0  0  0  0 
 15  2  1  0  0  0  0 
 18  3  1  0  0  0  0 
 20  5  1  0  0  0  0 
 21  6  1  0  0  0  0 
M  END 
>  <HBA> 
3 
 
>  <HBD> 
0 
 
>  <TPSA> 
50.09 
 
>  <cid> 
25918 
 
>  <dipole> 
5.43 
 
>  <excitation_energy_1> 
5.856 
 
>  <excitation_energy_2> 
7.165 
 
>  <excitation_energy_3> 
7.371 
 
>  <excitation_energy_4> 
7.526 
 
>  <homo_energy> 
-8.025 
 
>  <homo_lumo_gap> 
7.75 
 
>  <logP> 
1.099 
 
>  <lumo_energy> 
-0.275 
 
>  <melting_point> 
19.12 
 
>  <molecular_refractivity> 
36.8 
 
>  <oscillator_strength_1> 
0.0008 
 
>  <oscillator_strength_2> 
0.0044 
 
>  <oscillator_strength_3> 
0.0834 
 
>  <oscillator_strength_4> 
0.0007 
 
>  <open_babel_can_smiles> 
N#CCC(=O)OCC(C)C 
 
>  <mulliken_charges> 
21 
1   -0.442925 
2   -0.453248 
3   -0.446367 
4   0.387642 
5   -0.04418 
6   -0.10163 
7   0.637593 
8   -0.458274 
9   -0.445685 
10   -0.465524 
11   0.150065 
12   0.140886 
13   0.15022 
14   0.155142 
15   0.153656 
16   0.143474 
17   0.229303 
18   0.227581 
19   0.152918 
20   0.173909 
21   0.155445 
 
>  <lowdin_charges> 
21 
1   -0.444989 
2   -0.443831 
3   -0.29879 
4   -0.006471 
5   -0.127648 
6   -0.132065 
7   0.200913 
8   -0.104875 
9   -0.236909 
10   -0.191167 
11   0.155004 
12   0.146242 
13   0.150307 
14   0.15872 
15   0.153974 
16   0.147265 
17   0.205074 
18   0.203099 
19   0.15245 
20   0.162064 
21   0.151631 
 
$$$$ 
 
