PCCDB-ID:  7935 
public computational chemistry database (PCCDB) project, http://pccdb.org 
 
 16 16  0  0  0  0  0  0  0  0999 V2000 
   -0.7549    1.1526   -0.0159 C   0  0  0  0  0  0  0  0  0  0  0  0 
   -1.3984   -0.0825   -0.0067 C   0  0  0  0  0  0  0  0  0  0  0  0 
    0.6345    1.2499   -0.0105 C   0  0  0  0  0  0  0  0  0  0  0  0 
    0.7670   -1.1692    0.0137 C   0  0  0  0  0  0  0  0  0  0  0  0 
   -0.6317   -1.2601    0.0107 C   0  0  0  0  0  0  0  0  0  0  0  0 
    1.4085    0.0770    0.0070 C   0  0  0  0  0  0  0  0  0  0  0  0 
   -1.2566   -2.5123    0.0784 N   0  0  0  0  0  0  0  0  0  0  0  0 
    2.8060    0.1510    0.0712 N   0  0  0  0  0  0  0  0  0  0  0  0 
   -1.3509    2.0619   -0.0324 H   0  0  0  0  0  0  0  0  0  0  0  0 
   -2.4839   -0.1421   -0.0076 H   0  0  0  0  0  0  0  0  0  0  0  0 
    1.1223    2.2214   -0.0143 H   0  0  0  0  0  0  0  0  0  0  0  0 
    1.3638   -2.0799    0.0359 H   0  0  0  0  0  0  0  0  0  0  0  0 
   -2.1968   -2.5297   -0.2977 H   0  0  0  0  0  0  0  0  0  0  0  0 
   -0.7052   -3.2792   -0.2872 H   0  0  0  0  0  0  0  0  0  0  0  0 
    3.1962    1.0052   -0.3081 H   0  0  0  0  0  0  0  0  0  0  0  0 
    3.2890   -0.6617   -0.2922 H   0  0  0  0  0  0  0  0  0  0  0  0 
  1  3  2  0  0  0  0 
  1  2  1  0  0  0  0 
  2  5  2  0  0  0  0 
  3  6  1  0  0  0  0 
  4 12  1  0  0  0  0 
  5  4  1  0  0  0  0 
  5  7  1  0  0  0  0 
  6  4  2  0  0  0  0 
  6  8  1  0  0  0  0 
  9  1  1  0  0  0  0 
 10  2  1  0  0  0  0 
 11  3  1  0  0  0  0 
 13  7  1  0  0  0  0 
 14  7  1  0  0  0  0 
 15  8  1  0  0  0  0 
 16  8  1  0  0  0  0 
M  END 
>  <HBA> 
2 
 
>  <HBD> 
2 
 
>  <TPSA> 
52.04 
 
>  <cid> 
7935 
 
>  <dipole> 
2.61 
 
>  <excitation_energy_1> 
4.488 
 
>  <excitation_energy_2> 
4.637 
 
>  <excitation_energy_3> 
4.767 
 
>  <excitation_energy_4> 
5.058 
 
>  <homo_energy> 
-5.021 
 
>  <homo_lumo_gap> 
5.608 
 
>  <logP> 
2.013 
 
>  <lumo_energy> 
0.588 
 
>  <melting_point> 
102.63 
 
>  <molecular_refractivity> 
35.25 
 
>  <oscillator_strength_1> 
0.008 
 
>  <oscillator_strength_2> 
0.028 
 
>  <oscillator_strength_3> 
0.0071 
 
>  <oscillator_strength_4> 
0.0095 
 
>  <open_babel_can_smiles> 
Nc1cccc(c1)N 
 
>  <mulliken_charges> 
16 
1   -0.140145 
2   -0.183964 
3   -0.1839 
4   -0.227512 
5   0.307926 
6   0.308065 
7   -0.788347 
8   -0.788535 
9   0.120543 
10   0.106676 
11   0.106656 
12   0.099858 
13   0.316683 
14   0.314612 
15   0.316741 
16   0.314644 
 
>  <lowdin_charges> 
16 
1   -0.137718 
2   -0.228417 
3   -0.231271 
4   -0.248785 
5   0.069597 
6   0.071767 
7   -0.491209 
8   -0.493735 
9   0.15481 
10   0.147284 
11   0.14923 
12   0.146214 
13   0.272482 
14   0.273006 
15   0.273852 
16   0.272892 
 
$$$$ 
 
