PCCDB-ID:  70012 
public computational chemistry database (PCCDB) project, http://pccdb.org 
 
 22 23  0  0  0  0  0  0  0  0999 V2000 
    0.9943    0.0717    1.1330 C   0  0  0  0  0  0  0  0  0  0  0  0 
    7.8778   -3.1932   -0.1829 C   0  0  0  0  0  0  0  0  0  0  0  0 
    6.6536   -3.7287    0.2193 C   0  0  0  0  0  0  0  0  0  0  0  0 
    7.9779   -1.8221   -0.4369 C   0  0  0  0  0  0  0  0  0  0  0  0 
    5.5403   -2.9029    0.3677 C   0  0  0  0  0  0  0  0  0  0  0  0 
    6.8695   -0.9946   -0.2890 C   0  0  0  0  0  0  0  0  0  0  0  0 
    3.2398    1.1333    0.2747 C   0  0  0  0  0  0  0  0  0  0  0  0 
    2.4268    0.1130    0.7154 C   0  0  0  0  0  0  0  0  0  0  0  0 
    5.6318   -1.5238    0.1174 C   0  0  0  0  0  0  0  0  0  0  0  0 
    4.4907   -0.6169    0.2630 C   0  0  0  0  0  0  0  0  0  0  0  0 
    4.5043    0.6810   -0.0002 N   0  0  0  0  0  0  0  0  0  0  0  0 
    3.2438   -1.0015    0.7006 N   0  0  0  0  0  0  0  0  0  0  0  0 
    0.5626    1.0746    1.0709 H   0  0  0  0  0  0  0  0  0  0  0  0 
    0.8731   -0.2762    2.1677 H   0  0  0  0  0  0  0  0  0  0  0  0 
    0.3937   -0.5872    0.4916 H   0  0  0  0  0  0  0  0  0  0  0  0 
    8.7450   -3.8375   -0.2982 H   0  0  0  0  0  0  0  0  0  0  0  0 
    6.5620   -4.7932    0.4184 H   0  0  0  0  0  0  0  0  0  0  0  0 
    8.9264   -1.3958   -0.7528 H   0  0  0  0  0  0  0  0  0  0  0  0 
    4.5972   -3.3490    0.6755 H   0  0  0  0  0  0  0  0  0  0  0  0 
    6.9347    0.0707   -0.4829 H   0  0  0  0  0  0  0  0  0  0  0  0 
    2.9718    2.1738    0.1434 H   0  0  0  0  0  0  0  0  0  0  0  0 
    2.9673   -1.9305    0.9818 H   0  0  0  0  0  0  0  0  0  0  0  0 
  1 14  1  0  0  0  0 
  2  3  2  0  0  0  0 
  3  5  1  0  0  0  0 
  3 17  1  0  0  0  0 
  4  6  2  0  0  0  0 
  4  2  1  0  0  0  0 
  5 19  1  0  0  0  0 
  6  9  1  0  0  0  0 
  7  8  2  0  0  0  0 
  8  1  1  0  0  0  0 
  9 10  1  0  0  0  0 
  9  5  2  0  0  0  0 
 10 12  1  0  0  0  0 
 11 10  2  0  0  0  0 
 11  7  1  0  0  0  0 
 12  8  1  0  0  0  0 
 12 22  1  0  0  0  0 
 13  1  1  0  0  0  0 
 15  1  1  0  0  0  0 
 16  2  1  0  0  0  0 
 18  4  1  0  0  0  0 
 20  6  1  0  0  0  0 
 21  7  1  0  0  0  0 
M  END 
>  <HBA> 
1 
 
>  <HBD> 
1 
 
>  <TPSA> 
28.68 
 
>  <cid> 
70012 
 
>  <dipole> 
3.4 
 
>  <excitation_energy_1> 
4.324 
 
>  <excitation_energy_2> 
4.564 
 
>  <excitation_energy_3> 
4.582 
 
>  <excitation_energy_4> 
5.309 
 
>  <homo_energy> 
-5.402 
 
>  <homo_lumo_gap> 
4.746 
 
>  <logP> 
2.385 
 
>  <lumo_energy> 
-0.656 
 
>  <melting_point> 
108.21 
 
>  <molecular_refractivity> 
48.99 
 
>  <oscillator_strength_1> 
0.5323 
 
>  <oscillator_strength_2> 
0.0103 
 
>  <oscillator_strength_3> 
0.0002 
 
>  <oscillator_strength_4> 
0.0015 
 
>  <open_babel_can_smiles> 
Cc1cnc([nH]1)c1ccccc1 
 
>  <mulliken_charges> 
22 
1   -0.537315 
2   -0.127503 
3   -0.134104 
4   -0.135659 
5   -0.192279 
6   -0.170785 
7   -0.067691 
8   0.343449 
9   0.143823 
10   0.440877 
11   -0.497545 
12   -0.682558 
13   0.17547 
14   0.1624 
15   0.163376 
16   0.12916 
17   0.128368 
18   0.132428 
19   0.103076 
20   0.165113 
21   0.128314 
22   0.329584 
 
>  <lowdin_charges> 
22 
1   -0.442558 
2   -0.160621 
3   -0.15272 
4   -0.152347 
5   -0.171598 
6   -0.141531 
7   -0.165979 
8   -0.003139 
9   -0.009498 
10   0.048056 
11   -0.193341 
12   -0.18706 
13   0.171814 
14   0.15866 
15   0.161414 
16   0.158692 
17   0.155586 
18   0.159205 
19   0.144564 
20   0.17584 
21   0.157851 
22   0.288711 
 
$$$$ 
 
