PCCDB-ID:  69238 
public computational chemistry database (PCCDB) project, http://pccdb.org 
 
 15 14  0  0  0  0  0  0  0  0999 V2000 
    3.1777    1.3955   -0.0629 C   0  0  0  0  0  0  0  0  0  0  0  0 
    2.9966   -0.1091   -0.1898 C   0  0  0  0  0  0  0  0  0  0  0  0 
    4.3527   -1.7633    2.8778 C   0  0  0  0  0  0  0  0  0  0  0  0 
    4.3575   -1.0778    1.4903 C   0  0  0  0  0  0  0  0  0  0  0  0 
    5.6130   -2.1043    3.2449 N   0  0  0  0  0  0  0  0  0  0  0  0 
    3.3402   -1.9549    3.5256 O   0  0  0  0  0  0  0  0  0  0  0  0 
    5.3804   -0.8756    0.8629 O   0  0  0  0  0  0  0  0  0  0  0  0 
    3.1264   -0.7619    1.1007 O   0  0  0  0  0  0  0  0  0  0  0  0 
    2.9979    1.8709   -1.0338 H   0  0  0  0  0  0  0  0  0  0  0  0 
    4.1960    1.6383    0.2538 H   0  0  0  0  0  0  0  0  0  0  0  0 
    2.4710    1.8120    0.6617 H   0  0  0  0  0  0  0  0  0  0  0  0 
    3.7258   -0.5443   -0.8776 H   0  0  0  0  0  0  0  0  0  0  0  0 
    1.9870   -0.3680   -0.5154 H   0  0  0  0  0  0  0  0  0  0  0  0 
    6.3890   -1.8915    2.6344 H   0  0  0  0  0  0  0  0  0  0  0  0 
    5.7647   -2.5561    4.1343 H   0  0  0  0  0  0  0  0  0  0  0  0 
  1 10  1  0  0  0  0 
  1 11  1  0  0  0  0 
  2  1  1  0  0  0  0 
  2  8  1  0  0  0  0 
  3  5  1  0  0  0  0 
  3  6  2  0  0  0  0 
  4  3  1  0  0  0  0 
  5 15  1  0  0  0  0 
  7  4  2  0  0  0  0 
  8  4  1  0  0  0  0 
  9  1  1  0  0  0  0 
 12  2  1  0  0  0  0 
 13  2  1  0  0  0  0 
 14  5  1  0  0  0  0 
M  END 
>  <HBA> 
4 
 
>  <HBD> 
1 
 
>  <TPSA> 
69.39 
 
>  <cid> 
69238 
 
>  <dipole> 
2.13 
 
>  <excitation_energy_1> 
4.046 
 
>  <excitation_energy_2> 
5.682 
 
>  <excitation_energy_3> 
5.734 
 
>  <excitation_energy_4> 
6.482 
 
>  <homo_energy> 
-6.825 
 
>  <homo_lumo_gap> 
5.576 
 
>  <logP> 
-0.265 
 
>  <lumo_energy> 
-1.249 
 
>  <melting_point> 
62.85 
 
>  <molecular_refractivity> 
25.53 
 
>  <oscillator_strength_1> 
0.0001 
 
>  <oscillator_strength_2> 
0.0393 
 
>  <oscillator_strength_3> 
0.0012 
 
>  <oscillator_strength_4> 
0.0106 
 
>  <open_babel_can_smiles> 
CCOC(=O)C(=O)N 
 
>  <mulliken_charges> 
15 
1   -0.464568 
2   -0.051806 
3   0.535194 
4   0.579846 
5   -0.741291 
6   -0.481751 
7   -0.497417 
8   -0.428714 
9   0.155302 
10   0.175531 
11   0.167827 
12   0.172946 
13   0.165149 
14   0.364292 
15   0.349458 
 
>  <lowdin_charges> 
15 
1   -0.453913 
2   -0.12469 
3   0.131743 
4   0.167686 
5   -0.443876 
6   -0.2682 
7   -0.272131 
8   -0.146951 
9   0.161582 
10   0.164412 
11   0.162747 
12   0.161199 
13   0.158394 
14   0.304921 
15   0.297077 
 
$$$$ 
 
