PCCDB-ID:  15504 
public computational chemistry database (PCCDB) project, http://pccdb.org 
 
 24 24  0  0  0  0  0  0  0  0999 V2000 
    2.7314    1.4739   -0.1083 C   0  0  0  0  0  0  0  0  0  0  0  0 
    2.2698    0.0268    0.1025 C   0  0  0  0  0  0  0  0  0  0  0  0 
    4.1404   -3.2422    0.7925 C   0  0  0  0  0  0  0  0  0  0  0  0 
    2.6217   -3.1300    0.5876 C   0  0  0  0  0  0  0  0  0  0  0  0 
    4.8195   -1.8658    0.7147 C   0  0  0  0  0  0  0  0  0  0  0  0 
    2.2859   -2.3977   -0.7227 C   0  0  0  0  0  0  0  0  0  0  0  0 
    4.4711   -1.1427   -0.5971 C   0  0  0  0  0  0  0  0  0  0  0  0 
    2.9482   -1.0042   -0.8266 C   0  0  0  0  0  0  0  0  0  0  0  0 
    2.1546    2.1642    0.5180 H   0  0  0  0  0  0  0  0  0  0  0  0 
    2.5991    1.7833   -1.1528 H   0  0  0  0  0  0  0  0  0  0  0  0 
    3.7888    1.6100    0.1448 H   0  0  0  0  0  0  0  0  0  0  0  0 
    1.1850   -0.0259   -0.0672 H   0  0  0  0  0  0  0  0  0  0  0  0 
    2.4202   -0.2480    1.1545 H   0  0  0  0  0  0  0  0  0  0  0  0 
    4.5610   -3.8926    0.0106 H   0  0  0  0  0  0  0  0  0  0  0  0 
    4.3623   -3.7259    1.7526 H   0  0  0  0  0  0  0  0  0  0  0  0 
    2.1784   -2.5944    1.4388 H   0  0  0  0  0  0  0  0  0  0  0  0 
    2.1646   -4.1280    0.5822 H   0  0  0  0  0  0  0  0  0  0  0  0 
    5.9085   -1.9757    0.7981 H   0  0  0  0  0  0  0  0  0  0  0  0 
    4.5072   -1.2561    1.5745 H   0  0  0  0  0  0  0  0  0  0  0  0 
    1.1973   -2.3034   -0.8357 H   0  0  0  0  0  0  0  0  0  0  0  0 
    2.6326   -3.0138   -1.5656 H   0  0  0  0  0  0  0  0  0  0  0  0 
    4.8941   -1.7178   -1.4341 H   0  0  0  0  0  0  0  0  0  0  0  0 
    4.9577   -0.1602   -0.6292 H   0  0  0  0  0  0  0  0  0  0  0  0 
    2.7991   -0.6435   -1.8559 H   0  0  0  0  0  0  0  0  0  0  0  0 
  1  2  1  0  0  0  0 
  1 11  1  0  0  0  0 
  1  9  1  0  0  0  0 
  2 13  1  0  0  0  0 
  3 15  1  0  0  0  0 
  4  3  1  0  0  0  0 
  4 16  1  0  0  0  0 
  5  3  1  0  0  0  0 
  5 18  1  0  0  0  0 
  5 19  1  0  0  0  0 
  6  4  1  0  0  0  0 
  7  5  1  0  0  0  0 
  8  6  1  0  0  0  0 
  8  7  1  0  0  0  0 
  8  2  1  0  0  0  0 
 10  1  1  0  0  0  0 
 12  2  1  0  0  0  0 
 14  3  1  0  0  0  0 
 17  4  1  0  0  0  0 
 20  6  1  0  0  0  0 
 21  6  1  0  0  0  0 
 22  7  1  0  0  0  0 
 23  7  1  0  0  0  0 
 24  8  1  0  0  0  0 
M  END 
>  <HBA> 
0 
 
>  <HBD> 
0 
 
>  <TPSA> 
0.0 
 
>  <cid> 
15504 
 
>  <dipole> 
0.02 
 
>  <excitation_energy_1> 
7.24 
 
>  <excitation_energy_2> 
7.306 
 
>  <excitation_energy_3> 
7.541 
 
>  <excitation_energy_4> 
7.596 
 
>  <homo_energy> 
-7.78 
 
>  <homo_lumo_gap> 
9.927 
 
>  <logP> 
2.977 
 
>  <lumo_energy> 
2.147 
 
>  <melting_point> 
-5.31 
 
>  <molecular_refractivity> 
38.46 
 
>  <oscillator_strength_1> 
0.001 
 
>  <oscillator_strength_2> 
0.0006 
 
>  <oscillator_strength_3> 
0.0055 
 
>  <oscillator_strength_4> 
0.003 
 
>  <open_babel_can_smiles> 
CCC1CCCCC1 
 
>  <mulliken_charges> 
24 
1   -0.448422 
2   -0.253589 
3   -0.254108 
4   -0.2594 
5   -0.260014 
6   -0.264372 
7   -0.266557 
8   -0.068034 
9   0.140928 
10   0.140417 
11   0.145632 
12   0.127543 
13   0.133121 
14   0.125273 
15   0.127417 
16   0.130981 
17   0.128233 
18   0.128396 
19   0.130363 
20   0.124764 
21   0.124033 
22   0.124712 
23   0.13032 
24   0.112363 
 
>  <lowdin_charges> 
24 
1   -0.445369 
2   -0.274539 
3   -0.278732 
4   -0.280454 
5   -0.278708 
6   -0.278101 
7   -0.28232 
8   -0.128506 
9   0.150812 
10   0.144489 
11   0.145364 
12   0.138164 
13   0.137484 
14   0.137124 
15   0.141606 
16   0.138819 
17   0.141967 
18   0.140674 
19   0.138162 
20   0.138006 
21   0.138562 
22   0.139402 
23   0.141765 
24   0.13433 
 
$$$$ 
 
