PCCDB-ID:  45582 
public computational chemistry database (PCCDB) project, http://pccdb.org 
 
 36 37  0  0  0  0  0  0  0  0999 V2000 
    1.6834   -0.3156    0.1021 C   0  0  0  0  0  0  0  0  0  0  0  0 
    2.7788   -0.2316   -0.9658 C   0  0  0  0  0  0  0  0  0  0  0  0 
    4.1633   -0.6297   -0.4403 C   0  0  0  0  0  0  0  0  0  0  0  0 
   13.5114   -2.2093   -0.6859 C   0  0  0  0  0  0  0  0  0  0  0  0 
   14.2679   -2.0949   -1.8704 C   0  0  0  0  0  0  0  0  0  0  0  0 
   12.1435   -1.9653   -0.6830 C   0  0  0  0  0  0  0  0  0  0  0  0 
   13.6719   -1.7345   -3.0737 C   0  0  0  0  0  0  0  0  0  0  0  0 
    8.9749   -1.2766   -1.2941 C   0  0  0  0  0  0  0  0  0  0  0  0 
    5.2555   -0.5753   -1.5101 C   0  0  0  0  0  0  0  0  0  0  0  0 
    7.6348   -0.9243   -1.9445 C   0  0  0  0  0  0  0  0  0  0  0  0 
   10.1557   -1.0037   -3.5804 C   0  0  0  0  0  0  0  0  0  0  0  0 
   10.1462   -1.2846   -2.2369 C   0  0  0  0  0  0  0  0  0  0  0  0 
   11.5105   -1.6006   -1.8839 C   0  0  0  0  0  0  0  0  0  0  0  0 
   12.2946   -1.4906   -3.0653 C   0  0  0  0  0  0  0  0  0  0  0  0 
    6.5645   -0.9069   -0.9515 N   0  0  0  0  0  0  0  0  0  0  0  0 
   11.4407   -1.1245   -4.0841 N   0  0  0  0  0  0  0  0  0  0  0  0 
    0.7084   -0.0190   -0.3010 H   0  0  0  0  0  0  0  0  0  0  0  0 
    1.9069    0.3411    0.9517 H   0  0  0  0  0  0  0  0  0  0  0  0 
    1.5865   -1.3368    0.4911 H   0  0  0  0  0  0  0  0  0  0  0  0 
    2.8232    0.7924   -1.3630 H   0  0  0  0  0  0  0  0  0  0  0  0 
    2.5109   -0.8758   -1.8153 H   0  0  0  0  0  0  0  0  0  0  0  0 
    4.1130   -1.6495   -0.0275 H   0  0  0  0  0  0  0  0  0  0  0  0 
    4.4544    0.0254    0.3912 H   0  0  0  0  0  0  0  0  0  0  0  0 
   14.0100   -2.4908    0.2376 H   0  0  0  0  0  0  0  0  0  0  0  0 
   15.3364   -2.2909   -1.8427 H   0  0  0  0  0  0  0  0  0  0  0  0 
   11.5705   -2.0546    0.2365 H   0  0  0  0  0  0  0  0  0  0  0  0 
   14.2564   -1.6450   -3.9861 H   0  0  0  0  0  0  0  0  0  0  0  0 
    8.8883   -2.2662   -0.8171 H   0  0  0  0  0  0  0  0  0  0  0  0 
    9.1520   -0.5685   -0.4730 H   0  0  0  0  0  0  0  0  0  0  0  0 
    5.3161    0.4429   -1.9200 H   0  0  0  0  0  0  0  0  0  0  0  0 
    4.9737   -1.2317   -2.3590 H   0  0  0  0  0  0  0  0  0  0  0  0 
    7.4324   -1.6227   -2.7811 H   0  0  0  0  0  0  0  0  0  0  0  0 
    7.6969    0.0795   -2.3863 H   0  0  0  0  0  0  0  0  0  0  0  0 
    9.3435   -0.7209   -4.2353 H   0  0  0  0  0  0  0  0  0  0  0  0 
    6.5090   -1.8271   -0.5141 H   0  0  0  0  0  0  0  0  0  0  0  0 
   11.7062   -0.9665   -5.0431 H   0  0  0  0  0  0  0  0  0  0  0  0 
  1 19  1  0  0  0  0 
  1 18  1  0  0  0  0 
  2  3  1  0  0  0  0 
  2  1  1  0  0  0  0 
  3 22  1  0  0  0  0 
  3 23  1  0  0  0  0 
  4  6  1  0  0  0  0 
  4 24  1  0  0  0  0 
  5 25  1  0  0  0  0 
  5  4  2  0  0  0  0 
  6 26  1  0  0  0  0 
  7 14  2  0  0  0  0 
  7  5  1  0  0  0  0 
  8 28  1  0  0  0  0 
  8 29  1  0  0  0  0 
  9 15  1  0  0  0  0 
  9  3  1  0  0  0  0 
 10  8  1  0  0  0  0 
 10 15  1  0  0  0  0 
 11 12  2  0  0  0  0 
 12 13  1  0  0  0  0 
 12  8  1  0  0  0  0 
 13  6  2  0  0  0  0 
 14 13  1  0  0  0  0 
 15 35  1  0  0  0  0 
 16 11  1  0  0  0  0 
 16 14  1  0  0  0  0 
 17  1  1  0  0  0  0 
 20  2  1  0  0  0  0 
 21  2  1  0  0  0  0 
 27  7  1  0  0  0  0 
 30  9  1  0  0  0  0 
 31  9  1  0  0  0  0 
 32 10  1  0  0  0  0 
 33 10  1  0  0  0  0 
 34 11  1  0  0  0  0 
 36 16  1  0  0  0  0 
M  END 
>  <HBA> 
1 
 
>  <HBD> 
2 
 
>  <TPSA> 
27.82 
 
>  <cid> 
45582 
 
>  <dipole> 
2.44 
 
>  <excitation_energy_1> 
4.539 
 
>  <excitation_energy_2> 
4.673 
 
>  <excitation_energy_3> 
4.82 
 
>  <excitation_energy_4> 
5.163 
 
>  <homo_energy> 
-5.252 
 
>  <homo_lumo_gap> 
5.225 
 
>  <logP> 
3.491 
 
>  <lumo_energy> 
-0.027 
 
>  <melting_point> 
123.62 
 
>  <molecular_refractivity> 
70.1 
 
>  <oscillator_strength_1> 
0.0612 
 
>  <oscillator_strength_2> 
0.0007 
 
>  <oscillator_strength_3> 
0.0269 
 
>  <oscillator_strength_4> 
0.0006 
 
>  <open_babel_can_smiles> 
CCCCNCCc1c[nH]c2c1cccc2 
 
>  <mulliken_charges> 
36 
1   -0.440733 
2   -0.25001 
3   -0.25986 
4   -0.140393 
5   -0.151411 
6   -0.210068 
7   -0.164161 
8   -0.343552 
9   -0.104759 
10   -0.11385 
11   -0.009538 
12   0.082181 
13   0.071236 
14   0.318864 
15   -0.563993 
16   -0.702024 
17   0.141923 
18   0.143669 
19   0.141254 
20   0.132499 
21   0.13063 
22   0.121858 
23   0.145697 
24   0.118278 
25   0.120529 
26   0.122538 
27   0.118187 
28   0.137012 
29   0.161647 
30   0.134645 
31   0.10431 
32   0.110437 
33   0.139442 
34   0.14638 
35   0.28701 
36   0.324126 
 
>  <lowdin_charges> 
36 
1   -0.443015 
2   -0.271418 
3   -0.278785 
4   -0.177985 
5   -0.162825 
6   -0.164151 
7   -0.189248 
8   -0.270632 
9   -0.200202 
10   -0.199651 
11   -0.145015 
12   -0.060661 
13   -0.035301 
14   0.031385 
15   -0.361304 
16   -0.201683 
17   0.14905 
18   0.148013 
19   0.145393 
20   0.138989 
21   0.139343 
22   0.133913 
23   0.148383 
24   0.153959 
25   0.152743 
26   0.155884 
27   0.154227 
28   0.144878 
29   0.158801 
30   0.137851 
31   0.112936 
32   0.115325 
33   0.140373 
34   0.164658 
35   0.247153 
36   0.288617 
 
$$$$ 
 
