PCCDB-ID:  6987 
public computational chemistry database (PCCDB) project, http://pccdb.org 
 
 27 27  0  0  1  0  0  0  0  0999 V2000 
    2.0814    1.3790    0.5776 C   0  0  0  0  0  0  0  0  0  0  0  0 
    1.8894   -1.1288    0.5715 C   0  0  0  0  0  0  0  0  0  0  0  0 
    7.1106   -0.6224   -2.1435 C   0  0  0  0  0  0  0  0  0  0  0  0 
    4.7358   -1.5384   -1.7949 C   0  0  0  0  0  0  0  0  0  0  0  0 
    3.2693   -1.2434   -2.1381 C   0  0  0  0  0  0  0  0  0  0  0  0 
    5.1282    0.8965   -2.1383 C   0  0  0  0  0  0  0  0  0  0  0  0 
    2.6920    0.0725    0.0443 C   0  0  0  0  0  0  0  0  0  0  0  0 
    5.6366   -0.3481   -2.0324 C   0  0  0  0  0  0  0  0  0  0  0  0 
    2.7768    0.0786   -1.5163 C   0  0  1  0  0  0  0  0  0  0  0  0 
    3.6918    1.2114   -1.9917 C   0  0  0  0  0  0  0  0  0  0  0  0 
    3.2708    2.3421   -2.2044 O   0  0  0  0  0  0  0  0  0  0  0  0 
    2.0670    1.3723    1.6739 H   0  0  0  0  0  0  0  0  0  0  0  0 
    1.0467    1.4927    0.2301 H   0  0  0  0  0  0  0  0  0  0  0  0 
    2.6347    2.2608    0.2459 H   0  0  0  0  0  0  0  0  0  0  0  0 
    1.7794   -1.0621    1.6601 H   0  0  0  0  0  0  0  0  0  0  0  0 
    2.3680   -2.0885    0.3503 H   0  0  0  0  0  0  0  0  0  0  0  0 
    0.8809   -1.1474    0.1382 H   0  0  0  0  0  0  0  0  0  0  0  0 
    7.3209   -1.2861   -2.9932 H   0  0  0  0  0  0  0  0  0  0  0  0 
    7.4777   -1.1411   -1.2470 H   0  0  0  0  0  0  0  0  0  0  0  0 
    7.6899    0.2966   -2.2703 H   0  0  0  0  0  0  0  0  0  0  0  0 
    5.0978   -2.3916   -2.3848 H   0  0  0  0  0  0  0  0  0  0  0  0 
    4.8343   -1.8499   -0.7429 H   0  0  0  0  0  0  0  0  0  0  0  0 
    2.6321   -2.0810   -1.8371 H   0  0  0  0  0  0  0  0  0  0  0  0 
    3.1788   -1.1636   -3.2297 H   0  0  0  0  0  0  0  0  0  0  0  0 
    5.7711    1.7507   -2.3400 H   0  0  0  0  0  0  0  0  0  0  0  0 
    3.7159   -0.0058    0.4395 H   0  0  0  0  0  0  0  0  0  0  0  0 
    1.7734    0.3074   -1.8976 H   0  0  0  0  0  0  0  0  0  0  0  0 
  1 12  1  0  0  0  0 
  2 15  1  0  0  0  0 
  3  8  1  0  0  0  0 
  3 19  1  0  0  0  0 
  4 22  1  0  0  0  0 
  5 23  1  0  0  0  0 
  5  4  1  0  0  0  0 
  5  9  1  0  0  0  0 
  6  8  2  0  0  0  0 
  6 10  1  0  0  0  0 
  7 26  1  0  0  0  0 
  7  2  1  0  0  0  0 
  7  1  1  0  0  0  0 
  8  4  1  0  0  0  0 
  9 27  1  6  0  0  0 
  9  7  1  0  0  0  0 
 10  9  1  0  0  0  0 
 11 10  2  0  0  0  0 
 13  1  1  0  0  0  0 
 14  1  1  0  0  0  0 
 16  2  1  0  0  0  0 
 17  2  1  0  0  0  0 
 18  3  1  0  0  0  0 
 20  3  1  0  0  0  0 
 21  4  1  0  0  0  0 
 24  5  1  0  0  0  0 
 25  6  1  0  0  0  0 
M  END 
>  <HBA> 
1 
 
>  <HBD> 
0 
 
>  <TPSA> 
17.07 
 
>  <cid> 
6987 
 
>  <dipole> 
3.96 
 
>  <excitation_energy_1> 
3.579 
 
>  <excitation_energy_2> 
5.54 
 
>  <excitation_energy_3> 
5.762 
 
>  <excitation_energy_4> 
6.196 
 
>  <homo_energy> 
-6.218 
 
>  <homo_lumo_gap> 
5.042 
 
>  <logP> 
2.568 
 
>  <lumo_energy> 
-1.176 
 
>  <melting_point> 
27.96 
 
>  <molecular_refractivity> 
47.8 
 
>  <oscillator_strength_1> 
0.001 
 
>  <oscillator_strength_2> 
0.3136 
 
>  <oscillator_strength_3> 
0.0052 
 
>  <oscillator_strength_4> 
0.003 
 
>  <open_babel_can_smiles> 
CC1=CC(=O)[C@@H](CC1)C(C)C 
 
>  <mulliken_charges> 
27 
1   -0.448278 
2   -0.449112 
3   -0.519624 
4   -0.337771 
5   -0.29528 
6   -0.226586 
7   -0.082147 
8   0.188551 
9   -0.157187 
10   0.443209 
11   -0.489869 
12   0.134456 
13   0.142475 
14   0.171128 
15   0.145033 
16   0.141137 
17   0.143699 
18   0.164774 
19   0.163715 
20   0.166869 
21   0.148938 
22   0.159898 
23   0.143261 
24   0.14739 
25   0.135111 
26   0.124734 
27   0.141474 
 
>  <lowdin_charges> 
27 
1   -0.444656 
2   -0.443192 
3   -0.441964 
4   -0.280568 
5   -0.276173 
6   -0.222587 
7   -0.117947 
8   0.034277 
9   -0.155711 
10   0.148887 
11   -0.254757 
12   0.14365 
13   0.147401 
14   0.163614 
15   0.149929 
16   0.14587 
17   0.147515 
18   0.16387 
19   0.163669 
20   0.163066 
21   0.155364 
22   0.155876 
23   0.151126 
24   0.147534 
25   0.165493 
26   0.135806 
27   0.154609 
 
$$$$ 
 
