PCCDB-ID:  16587 
public computational chemistry database (PCCDB) project, http://pccdb.org 
 
 20 21  0  0  0  0  0  0  0  0999 V2000 
    1.0485   -0.0283    0.0478 C   0  0  0  0  0  0  0  0  0  0  0  0 
    7.1713    0.6574    0.0167 C   0  0  0  0  0  0  0  0  0  0  0  0 
    7.1967   -0.7403    0.0143 C   0  0  0  0  0  0  0  0  0  0  0  0 
    5.9570    1.3514    0.0241 C   0  0  0  0  0  0  0  0  0  0  0  0 
    6.0020   -1.4744    0.0187 C   0  0  0  0  0  0  0  0  0  0  0  0 
    3.3665    1.0500    0.0367 C   0  0  0  0  0  0  0  0  0  0  0  0 
    3.3698   -1.2974    0.0321 C   0  0  0  0  0  0  0  0  0  0  0  0 
    2.5449   -0.0221    0.0393 C   0  0  0  0  0  0  0  0  0  0  0  0 
    4.7671    0.6218    0.0287 C   0  0  0  0  0  0  0  0  0  0  0  0 
    4.7947   -0.7904    0.0257 C   0  0  0  0  0  0  0  0  0  0  0  0 
    0.6450    0.9893    0.0428 H   0  0  0  0  0  0  0  0  0  0  0  0 
    0.6532   -0.5439    0.9342 H   0  0  0  0  0  0  0  0  0  0  0  0 
    0.6432   -0.5570   -0.8263 H   0  0  0  0  0  0  0  0  0  0  0  0 
    8.1065    1.2115    0.0132 H   0  0  0  0  0  0  0  0  0  0  0  0 
    8.1496   -1.2627    0.0087 H   0  0  0  0  0  0  0  0  0  0  0  0 
    5.9440    2.4386    0.0260 H   0  0  0  0  0  0  0  0  0  0  0  0 
    6.0286   -2.5620    0.0170 H   0  0  0  0  0  0  0  0  0  0  0  0 
    3.0444    2.0874    0.0391 H   0  0  0  0  0  0  0  0  0  0  0  0 
    3.1437   -1.9192   -0.8471 H   0  0  0  0  0  0  0  0  0  0  0  0 
    3.1530   -1.9242    0.9101 H   0  0  0  0  0  0  0  0  0  0  0  0 
  1 12  1  0  0  0  0 
  2  4  1  0  0  0  0 
  3  2  2  0  0  0  0 
  3  5  1  0  0  0  0 
  4 16  1  0  0  0  0 
  4  9  2  0  0  0  0 
  5 10  2  0  0  0  0 
  6 18  1  0  0  0  0 
  6  8  2  0  0  0  0 
  7  8  1  0  0  0  0 
  7 20  1  0  0  0  0 
  8  1  1  0  0  0  0 
  9  6  1  0  0  0  0 
 10  9  1  0  0  0  0 
 10  7  1  0  0  0  0 
 11  1  1  0  0  0  0 
 13  1  1  0  0  0  0 
 14  2  1  0  0  0  0 
 15  3  1  0  0  0  0 
 17  5  1  0  0  0  0 
 19  7  1  0  0  0  0 
M  END 
>  <HBA> 
0 
 
>  <HBD> 
0 
 
>  <TPSA> 
0.0 
 
>  <cid> 
16587 
 
>  <dipole> 
1.1 
 
>  <excitation_energy_1> 
4.59 
 
>  <excitation_energy_2> 
4.83 
 
>  <excitation_energy_3> 
5.302 
 
>  <excitation_energy_4> 
5.48 
 
>  <homo_energy> 
-5.557 
 
>  <homo_lumo_gap> 
5.159 
 
>  <logP> 
2.646 
 
>  <lumo_energy> 
-0.397 
 
>  <melting_point> 
57.01 
 
>  <molecular_refractivity> 
44.19 
 
>  <oscillator_strength_1> 
0.077 
 
>  <oscillator_strength_2> 
0.1791 
 
>  <oscillator_strength_3> 
0.0003 
 
>  <oscillator_strength_4> 
0.0034 
 
>  <open_babel_can_smiles> 
CC1=Cc2c(C1)cccc2 
 
>  <mulliken_charges> 
20 
1   -0.521362 
2   -0.132404 
3   -0.137258 
4   -0.20768 
5   -0.196271 
6   -0.195759 
7   -0.406011 
8   0.142251 
9   0.132187 
10   0.106194 
11   0.158766 
12   0.157069 
13   0.156818 
14   0.123278 
15   0.122474 
16   0.123274 
17   0.120803 
18   0.121889 
19   0.165886 
20   0.165857 
 
>  <lowdin_charges> 
20 
1   -0.440865 
2   -0.159248 
3   -0.166807 
4   -0.169297 
5   -0.162299 
6   -0.185071 
7   -0.277565 
8   -0.002085 
9   -0.008176 
10   -0.009289 
11   0.159382 
12   0.158893 
13   0.158852 
14   0.155305 
15   0.155012 
16   0.153031 
17   0.151953 
18   0.153951 
19   0.167189 
20   0.167134 
 
$$$$ 
 
