PCCDB-ID:  21345 
public computational chemistry database (PCCDB) project, http://pccdb.org 
 
 28 30  0  0  0  0  0  0  0  0999 V2000 
    2.6456    1.6065    0.6794 C   0  0  0  0  0  0  0  0  0  0  0  0 
    2.1187    2.9094    0.5610 C   0  0  0  0  0  0  0  0  0  0  0  0 
    0.7309   -2.5668   -3.4902 C   0  0  0  0  0  0  0  0  0  0  0  0 
    0.5654   -1.9031   -2.2768 C   0  0  0  0  0  0  0  0  0  0  0  0 
    1.8377    0.4885    0.5165 C   0  0  0  0  0  0  0  0  0  0  0  0 
    0.7742    3.1188    0.2777 C   0  0  0  0  0  0  0  0  0  0  0  0 
   -0.0440   -3.6992   -3.7459 C   0  0  0  0  0  0  0  0  0  0  0  0 
   -0.5875   -1.7445    0.0098 C   0  0  0  0  0  0  0  0  0  0  0  0 
   -1.0874   -3.5304   -1.7222 C   0  0  0  0  0  0  0  0  0  0  0  0 
   -1.7332    0.5489   -0.2213 C   0  0  0  0  0  0  0  0  0  0  0  0 
   -0.3641   -2.3900   -1.3510 C   0  0  0  0  0  0  0  0  0  0  0  0 
   -0.6322   -0.2382    0.0089 C   0  0  0  0  0  0  0  0  0  0  0  0 
    0.4722    0.6651    0.2262 C   0  0  0  0  0  0  0  0  0  0  0  0 
   -0.0352    1.9899    0.1127 C   0  0  0  0  0  0  0  0  0  0  0  0 
   -0.9451   -4.1815   -2.8827 N   0  0  0  0  0  0  0  0  0  0  0  0 
   -1.3824    1.8847   -0.1636 N   0  0  0  0  0  0  0  0  0  0  0  0 
    3.7008    1.4788    0.9050 H   0  0  0  0  0  0  0  0  0  0  0  0 
    2.7748    3.7649    0.6952 H   0  0  0  0  0  0  0  0  0  0  0  0 
    1.4455   -2.2125   -4.2278 H   0  0  0  0  0  0  0  0  0  0  0  0 
    1.1448   -1.0118   -2.0514 H   0  0  0  0  0  0  0  0  0  0  0  0 
    2.2568   -0.5103    0.6130 H   0  0  0  0  0  0  0  0  0  0  0  0 
    0.3684    4.1232    0.1869 H   0  0  0  0  0  0  0  0  0  0  0  0 
    0.0597   -4.2411   -4.6849 H   0  0  0  0  0  0  0  0  0  0  0  0 
    0.2083   -2.0732    0.6936 H   0  0  0  0  0  0  0  0  0  0  0  0 
   -1.5179   -2.1431    0.4325 H   0  0  0  0  0  0  0  0  0  0  0  0 
   -1.8311   -3.9407   -1.0378 H   0  0  0  0  0  0  0  0  0  0  0  0 
   -2.7552    0.2599   -0.4275 H   0  0  0  0  0  0  0  0  0  0  0  0 
   -2.0175    2.6582   -0.2824 H   0  0  0  0  0  0  0  0  0  0  0  0 
  1 17  1  0  0  0  0 
  2  1  1  0  0  0  0 
  2 18  1  0  0  0  0 
  3  4  1  0  0  0  0 
  4 20  1  0  0  0  0 
  4 11  2  0  0  0  0 
  5 21  1  0  0  0  0 
  5  1  2  0  0  0  0 
  6  2  2  0  0  0  0 
  7  3  2  0  0  0  0 
  7 15  1  0  0  0  0 
  8 25  1  0  0  0  0 
  8 24  1  0  0  0  0 
  9 11  1  0  0  0  0 
  9 26  1  0  0  0  0 
 10 16  1  0  0  0  0 
 10 12  2  0  0  0  0 
 11  8  1  0  0  0  0 
 12  8  1  0  0  0  0 
 12 13  1  0  0  0  0 
 13  5  1  0  0  0  0 
 14 13  2  0  0  0  0 
 14  6  1  0  0  0  0 
 15  9  2  0  0  0  0 
 16 14  1  0  0  0  0 
 19  3  1  0  0  0  0 
 22  6  1  0  0  0  0 
 23  7  1  0  0  0  0 
 27 10  1  0  0  0  0 
 28 16  1  0  0  0  0 
M  END 
>  <HBA> 
1 
 
>  <HBD> 
1 
 
>  <TPSA> 
28.68 
 
>  <cid> 
21345 
 
>  <dipole> 
3.32 
 
>  <excitation_energy_1> 
4.254 
 
>  <excitation_energy_2> 
4.566 
 
>  <excitation_energy_3> 
4.664 
 
>  <excitation_energy_4> 
4.795 
 
>  <homo_energy> 
-5.48 
 
>  <homo_lumo_gap> 
5.037 
 
>  <logP> 
3.154 
 
>  <lumo_energy> 
-0.444 
 
>  <melting_point> 
145.66 
 
>  <molecular_refractivity> 
65.55 
 
>  <oscillator_strength_1> 
0.0023 
 
>  <oscillator_strength_2> 
0.0709 
 
>  <oscillator_strength_3> 
0.0132 
 
>  <oscillator_strength_4> 
0.0015 
 
>  <open_babel_can_smiles> 
c1ccc(cn1)Cc1c[nH]c2c1cccc2 
 
>  <mulliken_charges> 
28 
1   -0.139807 
2   -0.151973 
3   -0.141483 
4   -0.147783 
5   -0.212833 
6   -0.161635 
7   0.035769 
8   -0.446541 
9   -0.02167 
10   0.006534 
11   0.168834 
12   0.070079 
13   0.075593 
14   0.314642 
15   -0.410402 
16   -0.690039 
17   0.122356 
18   0.124433 
19   0.134723 
20   0.15424 
21   0.125747 
22   0.122394 
23   0.137143 
24   0.166229 
25   0.155048 
26   0.1303 
27   0.151923 
28   0.328179 
 
>  <lowdin_charges> 
28 
1   -0.173146 
2   -0.165003 
3   -0.175694 
4   -0.136755 
5   -0.167991 
6   -0.18609 
7   -0.096346 
8   -0.268129 
9   -0.10857 
10   -0.127607 
11   -0.018546 
12   -0.063306 
13   -0.038681 
14   0.032677 
15   -0.148864 
16   -0.200537 
17   0.153954 
18   0.157295 
19   0.163563 
20   0.169672 
21   0.155266 
22   0.15539 
23   0.154206 
24   0.164255 
25   0.159486 
26   0.151573 
27   0.164914 
28   0.293016 
 
$$$$ 
 
