PCCDB-ID:  6404 
public computational chemistry database (PCCDB) project, http://pccdb.org 
 
 18 17  0  0  0  0  0  0  0  0999 V2000 
    1.0512    0.0201   -0.0623 C   0  0  0  0  0  0  0  0  0  0  0  0 
    3.0732    0.7945   -1.3435 C   0  0  0  0  0  0  0  0  0  0  0  0 
    3.1155    0.7774    1.1756 C   0  0  0  0  0  0  0  0  0  0  0  0 
    3.1033   -1.3990   -0.0933 C   0  0  0  0  0  0  0  0  0  0  0  0 
    2.5894    0.0591   -0.0793 C   0  0  0  0  0  0  0  0  0  0  0  0 
    4.5215   -1.5229   -0.0919 O   0  0  0  0  0  0  0  0  0  0  0  0 
    0.6345    1.0339   -0.0371 H   0  0  0  0  0  0  0  0  0  0  0  0 
    0.6779   -0.5147    0.8201 H   0  0  0  0  0  0  0  0  0  0  0  0 
    0.6520   -0.4821   -0.9528 H   0  0  0  0  0  0  0  0  0  0  0  0 
    2.6889    1.8208   -1.3711 H   0  0  0  0  0  0  0  0  0  0  0  0 
    2.7321    0.2888   -2.2566 H   0  0  0  0  0  0  0  0  0  0  0  0 
    4.1680    0.8605   -1.3761 H   0  0  0  0  0  0  0  0  0  0  0  0 
    2.8087    1.8304    1.1845 H   0  0  0  0  0  0  0  0  0  0  0  0 
    4.2084    0.7348    1.2162 H   0  0  0  0  0  0  0  0  0  0  0  0 
    2.7280    0.3076    2.0882 H   0  0  0  0  0  0  0  0  0  0  0  0 
    2.6650   -1.9331   -0.9534 H   0  0  0  0  0  0  0  0  0  0  0  0 
    2.7673   -1.9126    0.8147 H   0  0  0  0  0  0  0  0  0  0  0  0 
    4.8425   -1.2251   -0.9563 H   0  0  0  0  0  0  0  0  0  0  0  0 
  1  7  1  0  0  0  0 
  1  8  1  0  0  0  0 
  2  5  1  0  0  0  0 
  3 13  1  0  0  0  0 
  3 14  1  0  0  0  0 
  3 15  1  0  0  0  0 
  4  6  1  0  0  0  0 
  4  5  1  0  0  0  0 
  4 17  1  0  0  0  0 
  5  1  1  0  0  0  0 
  5  3  1  0  0  0  0 
  9  1  1  0  0  0  0 
 10  2  1  0  0  0  0 
 11  2  1  0  0  0  0 
 12  2  1  0  0  0  0 
 16  4  1  0  0  0  0 
 18  6  1  0  0  0  0 
M  END 
>  <HBA> 
1 
 
>  <HBD> 
1 
 
>  <TPSA> 
20.23 
 
>  <cid> 
6404 
 
>  <dipole> 
1.6 
 
>  <excitation_energy_1> 
6.377 
 
>  <excitation_energy_2> 
7.065 
 
>  <excitation_energy_3> 
7.45 
 
>  <excitation_energy_4> 
7.519 
 
>  <homo_energy> 
-7.078 
 
>  <homo_lumo_gap> 
8.846 
 
>  <logP> 
1.025 
 
>  <lumo_energy> 
1.769 
 
>  <melting_point> 
11.41 
 
>  <molecular_refractivity> 
27.05 
 
>  <oscillator_strength_1> 
0.0012 
 
>  <oscillator_strength_2> 
0.0307 
 
>  <oscillator_strength_3> 
0.0125 
 
>  <oscillator_strength_4> 
0.0083 
 
>  <open_babel_can_smiles> 
OCC(C)(C)C 
 
>  <mulliken_charges> 
18 
1   -0.447075 
2   -0.461905 
3   -0.440256 
4   -0.028259 
5   0.082663 
6   -0.618725 
7   0.14319 
8   0.141058 
9   0.137621 
10   0.147686 
11   0.136261 
12   0.134184 
13   0.133969 
14   0.157565 
15   0.13628 
16   0.113664 
17   0.139995 
18   0.392084 
 
>  <lowdin_charges> 
18 
1   -0.443604 
2   -0.447378 
3   -0.441199 
4   -0.138882 
5   -0.003893 
6   -0.465952 
7   0.149925 
8   0.148826 
9   0.146582 
10   0.151974 
11   0.145001 
12   0.141334 
13   0.143847 
14   0.154496 
15   0.147004 
16   0.125334 
17   0.145759 
18   0.340827 
 
$$$$ 
 
