PCCDB-ID:  16671 
public computational chemistry database (PCCDB) project, http://pccdb.org 
 
 24 25  0  0  0  0  0  0  0  0999 V2000 
   -2.4798    0.6689   -0.3853 C   0  0  0  0  0  0  0  0  0  0  0  0 
   -2.5116   -0.6633    0.3680 C   0  0  0  0  0  0  0  0  0  0  0  0 
    2.4609    0.6764    0.0356 C   0  0  0  0  0  0  0  0  0  0  0  0 
   -1.2584    1.4837    0.0531 C   0  0  0  0  0  0  0  0  0  0  0  0 
    1.2578    1.3752    0.0380 C   0  0  0  0  0  0  0  0  0  0  0  0 
   -1.2749   -1.5078    0.0307 C   0  0  0  0  0  0  0  0  0  0  0  0 
    2.4609   -0.7160    0.0060 C   0  0  0  0  0  0  0  0  0  0  0  0 
    0.0363    0.6869    0.0310 C   0  0  0  0  0  0  0  0  0  0  0  0 
    0.0216   -0.7172    0.0211 C   0  0  0  0  0  0  0  0  0  0  0  0 
    1.2499   -1.4200   -0.0082 C   0  0  0  0  0  0  0  0  0  0  0  0 
    1.2526   -2.8248    0.0116 N   0  0  0  0  0  0  0  0  0  0  0  0 
   -3.3976    1.2421   -0.2059 H   0  0  0  0  0  0  0  0  0  0  0  0 
   -2.4312    0.4770   -1.4668 H   0  0  0  0  0  0  0  0  0  0  0  0 
   -3.4214   -1.2295    0.1343 H   0  0  0  0  0  0  0  0  0  0  0  0 
   -2.5339   -0.4628    1.4484 H   0  0  0  0  0  0  0  0  0  0  0  0 
    3.4056    1.2142    0.0411 H   0  0  0  0  0  0  0  0  0  0  0  0 
   -1.4304    1.8587    1.0739 H   0  0  0  0  0  0  0  0  0  0  0  0 
   -1.1459    2.3751   -0.5772 H   0  0  0  0  0  0  0  0  0  0  0  0 
    1.2568    2.4627    0.0448 H   0  0  0  0  0  0  0  0  0  0  0  0 
   -1.4265   -1.9769   -0.9574 H   0  0  0  0  0  0  0  0  0  0  0  0 
   -1.1876   -2.3391    0.7438 H   0  0  0  0  0  0  0  0  0  0  0  0 
    3.4000   -1.2658   -0.0086 H   0  0  0  0  0  0  0  0  0  0  0  0 
    2.1404   -3.2321   -0.2581 H   0  0  0  0  0  0  0  0  0  0  0  0 
    0.4933   -3.2584   -0.4995 H   0  0  0  0  0  0  0  0  0  0  0  0 
  1 12  1  0  0  0  0 
  1  4  1  0  0  0  0 
  1  2  1  0  0  0  0 
  2 15  1  0  0  0  0 
  3  5  2  0  0  0  0 
  3 16  1  0  0  0  0 
  4 17  1  0  0  0  0 
  5 19  1  0  0  0  0 
  6  2  1  0  0  0  0 
  6 21  1  0  0  0  0 
  7  3  1  0  0  0  0 
  8  5  1  0  0  0  0 
  8  4  1  0  0  0  0 
  9  6  1  0  0  0  0 
  9  8  2  0  0  0  0 
 10  7  2  0  0  0  0 
 10 11  1  0  0  0  0 
 10  9  1  0  0  0  0 
 13  1  1  0  0  0  0 
 14  2  1  0  0  0  0 
 18  4  1  0  0  0  0 
 20  6  1  0  0  0  0 
 22  7  1  0  0  0  0 
 23 11  1  0  0  0  0 
 24 11  1  0  0  0  0 
M  END 
>  <HBA> 
1 
 
>  <HBD> 
1 
 
>  <TPSA> 
26.02 
 
>  <cid> 
16671 
 
>  <dipole> 
1.58 
 
>  <excitation_energy_1> 
4.617 
 
>  <excitation_energy_2> 
4.797 
 
>  <excitation_energy_3> 
5.202 
 
>  <excitation_energy_4> 
5.284 
 
>  <homo_energy> 
-5.257 
 
>  <homo_lumo_gap> 
5.687 
 
>  <logP> 
2.729 
 
>  <lumo_energy> 
0.43 
 
>  <melting_point> 
83.4 
 
>  <molecular_refractivity> 
48.28 
 
>  <oscillator_strength_1> 
0.0183 
 
>  <oscillator_strength_2> 
0.0276 
 
>  <oscillator_strength_3> 
0.0144 
 
>  <oscillator_strength_4> 
0.0096 
 
>  <open_babel_can_smiles> 
Nc1cccc2c1CCCC2 
 
>  <mulliken_charges> 
24 
1   -0.263426 
2   -0.26401 
3   -0.135291 
4   -0.341842 
5   -0.195174 
6   -0.364264 
7   -0.175418 
8   0.105221 
9   0.101818 
10   0.234015 
11   -0.791337 
12   0.130737 
13   0.134443 
14   0.130238 
15   0.138774 
16   0.119717 
17   0.148626 
18   0.142654 
19   0.109511 
20   0.133945 
21   0.155583 
22   0.108732 
23   0.315945 
24   0.320803 
 
>  <lowdin_charges> 
24 
1   -0.274389 
2   -0.27268 
3   -0.151422 
4   -0.274698 
5   -0.192564 
6   -0.280761 
7   -0.208058 
8   -0.007012 
9   -0.054354 
10   0.05257 
11   -0.496329 
12   0.144311 
13   0.138475 
14   0.144345 
15   0.140768 
16   0.154024 
17   0.149387 
18   0.15102 
19   0.147849 
20   0.138995 
21   0.154466 
22   0.14891 
23   0.272111 
24   0.275038 
 
$$$$ 
 
