PCCDB-ID:  26068 
public computational chemistry database (PCCDB) project, http://pccdb.org 
 
 31 31  0  0  1  0  0  0  0  0999 V2000 
    1.2312   -0.5990    0.5554 C   0  0  0  0  0  0  0  0  0  0  0  0 
    2.2978    1.5515   -0.1179 C   0  0  0  0  0  0  0  0  0  0  0  0 
    3.5983   -0.1272    1.2193 C   0  0  0  0  0  0  0  0  0  0  0  0 
    4.7680   -0.6296   -3.1390 C   0  0  0  0  0  0  0  0  0  0  0  0 
    4.6262   -2.1525   -3.2624 C   0  0  0  0  0  0  0  0  0  0  0  0 
    4.4354   -0.1512   -1.7160 C   0  0  0  0  0  0  0  0  0  0  0  0 
    3.2347   -2.6128   -2.8048 C   0  0  0  0  0  0  0  0  0  0  0  0 
    3.0206   -0.5870   -1.2708 C   0  0  1  0  0  0  0  0  0  0  0  0 
    2.8881   -2.1291   -1.3830 C   0  0  2  0  0  0  0  0  0  0  0  0 
    2.5561    0.0426    0.0932 C   0  0  0  0  0  0  0  0  0  0  0  0 
    3.6496   -2.8432   -0.3987 O   0  0  0  0  0  0  0  0  0  0  0  0 
    0.8337   -0.0609    1.4245 H   0  0  0  0  0  0  0  0  0  0  0  0 
    1.3681   -1.6441    0.8500 H   0  0  0  0  0  0  0  0  0  0  0  0 
    0.4676   -0.5601   -0.2326 H   0  0  0  0  0  0  0  0  0  0  0  0 
    1.9523    2.0140    0.8145 H   0  0  0  0  0  0  0  0  0  0  0  0 
    1.5254    1.7203   -0.8789 H   0  0  0  0  0  0  0  0  0  0  0  0 
    3.1998    2.0890   -0.4312 H   0  0  0  0  0  0  0  0  0  0  0  0 
    3.2122    0.2983    2.1540 H   0  0  0  0  0  0  0  0  0  0  0  0 
    4.5356    0.3937    0.9911 H   0  0  0  0  0  0  0  0  0  0  0  0 
    3.8205   -1.1833    1.3918 H   0  0  0  0  0  0  0  0  0  0  0  0 
    4.0849   -0.1443   -3.8516 H   0  0  0  0  0  0  0  0  0  0  0  0 
    5.7825   -0.3148   -3.4149 H   0  0  0  0  0  0  0  0  0  0  0  0 
    5.3989   -2.6428   -2.6502 H   0  0  0  0  0  0  0  0  0  0  0  0 
    4.8119   -2.4774   -4.2936 H   0  0  0  0  0  0  0  0  0  0  0  0 
    4.5340    0.9383   -1.6614 H   0  0  0  0  0  0  0  0  0  0  0  0 
    5.1896   -0.5514   -1.0219 H   0  0  0  0  0  0  0  0  0  0  0  0 
    3.1600   -3.7065   -2.8266 H   0  0  0  0  0  0  0  0  0  0  0  0 
    2.4786   -2.2245   -3.5021 H   0  0  0  0  0  0  0  0  0  0  0  0 
    2.3207   -0.1956   -2.0277 H   0  0  0  0  0  0  0  0  0  0  0  0 
    1.8559   -2.4184   -1.1695 H   0  0  0  0  0  0  0  0  0  0  0  0 
    4.5840   -2.6146   -0.5206 H   0  0  0  0  0  0  0  0  0  0  0  0 
  1 13  1  0  0  0  0 
  1 12  1  0  0  0  0 
  2 10  1  0  0  0  0 
  2 15  1  0  0  0  0 
  3 20  1  0  0  0  0 
  3 18  1  0  0  0  0 
  4  6  1  0  0  0  0 
  5  4  1  0  0  0  0 
  5  7  1  0  0  0  0 
  5 23  1  0  0  0  0 
  6 25  1  0  0  0  0 
  6  8  1  0  0  0  0 
  6 26  1  0  0  0  0 
  7  9  1  0  0  0  0 
  8 29  1  6  0  0  0 
  8 10  1  0  0  0  0 
  9  8  1  0  0  0  0 
  9 30  1  1  0  0  0 
  9 11  1  0  0  0  0 
 10  1  1  0  0  0  0 
 10  3  1  0  0  0  0 
 14  1  1  0  0  0  0 
 16  2  1  0  0  0  0 
 17  2  1  0  0  0  0 
 19  3  1  0  0  0  0 
 21  4  1  0  0  0  0 
 22  4  1  0  0  0  0 
 24  5  1  0  0  0  0 
 27  7  1  0  0  0  0 
 28  7  1  0  0  0  0 
 31 11  1  0  0  0  0 
M  END 
>  <HBA> 
1 
 
>  <HBD> 
1 
 
>  <TPSA> 
20.23 
 
>  <cid> 
26068 
 
>  <dipole> 
1.62 
 
>  <excitation_energy_1> 
6.181 
 
>  <excitation_energy_2> 
6.564 
 
>  <excitation_energy_3> 
6.91 
 
>  <excitation_energy_4> 
7.022 
 
>  <homo_energy> 
-6.849 
 
>  <homo_lumo_gap> 
8.457 
 
>  <logP> 
2.584 
 
>  <lumo_energy> 
1.608 
 
>  <melting_point> 
30.66 
 
>  <molecular_refractivity> 
48.97 
 
>  <oscillator_strength_1> 
0.013 
 
>  <oscillator_strength_2> 
0.0012 
 
>  <oscillator_strength_3> 
0.0032 
 
>  <oscillator_strength_4> 
0.0123 
 
>  <open_babel_can_smiles> 
O[C@@H]1CCCC[C@@H]1C(C)(C)C 
 
>  <mulliken_charges> 
31 
1   -0.462439 
2   -0.450267 
3   -0.463281 
4   -0.258274 
5   -0.272661 
6   -0.291528 
7   -0.272271 
8   -0.091405 
9   0.121237 
10   0.113507 
11   -0.632505 
12   0.135502 
13   0.162927 
14   0.131446 
15   0.138364 
16   0.134804 
17   0.139173 
18   0.132288 
19   0.133083 
20   0.162319 
21   0.130879 
22   0.131771 
23   0.119841 
24   0.137829 
25   0.140578 
26   0.12013 
27   0.143054 
28   0.12726 
29   0.111117 
30   0.136077 
31   0.391442 
 
>  <lowdin_charges> 
31 
1   -0.445968 
2   -0.446437 
3   -0.452789 
4   -0.278495 
5   -0.282832 
6   -0.284694 
7   -0.293689 
8   -0.1473 
9   -0.006837 
10   0.017182 
11   -0.46307 
12   0.14763 
13   0.155783 
14   0.142986 
15   0.147538 
16   0.144622 
17   0.145345 
18   0.14545 
19   0.142936 
20   0.156397 
21   0.140555 
22   0.143152 
23   0.133277 
24   0.146841 
25   0.146373 
26   0.133627 
27   0.148739 
28   0.143453 
29   0.139836 
30   0.14556 
31   0.334826 
 
$$$$ 
 
