PCCDB-ID:  71467 
public computational chemistry database (PCCDB) project, http://pccdb.org 
 
 26 26  0  0  1  0  0  0  0  0999 V2000 
    2.9585    1.1375    1.0699 C   0  0  0  0  0  0  0  0  0  0  0  0 
    2.6395   -5.6899    2.3100 C   0  0  0  0  0  0  0  0  0  0  0  0 
    3.2579   -5.2401    1.1460 C   0  0  0  0  0  0  0  0  0  0  0  0 
    1.8891   -4.7899    3.0749 C   0  0  0  0  0  0  0  0  0  0  0  0 
    3.1389   -3.9083    0.7355 C   0  0  0  0  0  0  0  0  0  0  0  0 
    1.7615   -3.4627    2.6808 C   0  0  0  0  0  0  0  0  0  0  0  0 
    2.8038   -1.1739    0.0142 C   0  0  0  0  0  0  0  0  0  0  0  0 
    2.4221    0.2996   -0.1022 C   0  0  1  0  0  0  0  0  0  0  0  0 
    2.3861   -3.0152    1.5071 C   0  0  0  0  0  0  0  0  0  0  0  0 
    0.5404    1.7152   -0.5356 N   0  0  0  0  0  0  0  0  0  0  0  0 
    0.9693    0.3696   -0.2980 N   0  0  0  0  0  0  0  0  0  0  0  0 
    2.2045   -1.6949    1.2033 O   0  0  0  0  0  0  0  0  0  0  0  0 
    4.0530    1.0891    1.1214 H   0  0  0  0  0  0  0  0  0  0  0  0 
    2.5616    0.7774    2.0256 H   0  0  0  0  0  0  0  0  0  0  0  0 
    2.6776    2.1873    0.9392 H   0  0  0  0  0  0  0  0  0  0  0  0 
    2.7372   -6.7263    2.6197 H   0  0  0  0  0  0  0  0  0  0  0  0 
    3.8439   -5.9268    0.5404 H   0  0  0  0  0  0  0  0  0  0  0  0 
    1.4015   -5.1244    3.9870 H   0  0  0  0  0  0  0  0  0  0  0  0 
    3.6287   -3.5826   -0.1748 H   0  0  0  0  0  0  0  0  0  0  0  0 
    1.1821   -2.7525    3.2629 H   0  0  0  0  0  0  0  0  0  0  0  0 
    3.8961   -1.2831    0.0681 H   0  0  0  0  0  0  0  0  0  0  0  0 
    2.4309   -1.7223   -0.8601 H   0  0  0  0  0  0  0  0  0  0  0  0 
    2.8718    0.6705   -1.0317 H   0  0  0  0  0  0  0  0  0  0  0  0 
    0.2728    2.1847    0.3322 H   0  0  0  0  0  0  0  0  0  0  0  0 
   -0.2937    1.6619   -1.1156 H   0  0  0  0  0  0  0  0  0  0  0  0 
    0.5138   -0.0306    0.5240 H   0  0  0  0  0  0  0  0  0  0  0  0 
  1 13  1  0  0  0  0 
  1 14  1  0  0  0  0 
  2 16  1  0  0  0  0 
  2  4  2  0  0  0  0 
  3  2  1  0  0  0  0 
  4 18  1  0  0  0  0 
  5  3  2  0  0  0  0 
  5  9  1  0  0  0  0 
  6  4  1  0  0  0  0 
  6 20  1  0  0  0  0 
  7 21  1  0  0  0  0 
  7 12  1  0  0  0  0 
  8 23  1  6  0  0  0 
  8  7  1  0  0  0  0 
  8  1  1  0  0  0  0 
  9  6  2  0  0  0  0 
 10 11  1  0  0  0  0 
 10 24  1  0  0  0  0 
 11  8  1  0  0  0  0 
 11 26  1  0  0  0  0 
 12  9  1  0  0  0  0 
 15  1  1  0  0  0  0 
 17  3  1  0  0  0  0 
 19  5  1  0  0  0  0 
 22  7  1  0  0  0  0 
 25 10  1  0  0  0  0 
M  END 
>  <HBA> 
3 
 
>  <HBD> 
2 
 
>  <TPSA> 
47.28 
 
>  <cid> 
71467 
 
>  <dipole> 
0.75 
 
>  <excitation_energy_1> 
5.043 
 
>  <excitation_energy_2> 
5.537 
 
>  <excitation_energy_3> 
5.618 
 
>  <excitation_energy_4> 
5.653 
 
>  <homo_energy> 
-5.875 
 
>  <homo_lumo_gap> 
5.957 
 
>  <logP> 
2.008 
 
>  <lumo_energy> 
0.082 
 
>  <melting_point> 
88.52 
 
>  <molecular_refractivity> 
48.06 
 
>  <oscillator_strength_1> 
0.0317 
 
>  <oscillator_strength_2> 
0.0004 
 
>  <oscillator_strength_3> 
0.0031 
 
>  <oscillator_strength_4> 
0.0064 
 
>  <open_babel_can_smiles> 
NN[C@H](COc1ccccc1)C 
 
>  <mulliken_charges> 
26 
1   -0.467857 
2   -0.133321 
3   -0.137698 
4   -0.132741 
5   -0.193309 
6   -0.17628 
7   -0.040988 
8   0.051566 
9   0.383381 
10   -0.590674 
11   -0.467943 
12   -0.537288 
13   0.140288 
14   0.151073 
15   0.15713 
16   0.124865 
17   0.129199 
18   0.128887 
19   0.135192 
20   0.130381 
21   0.138306 
22   0.153543 
23   0.146538 
24   0.291275 
25   0.315721 
26   0.300754 
 
>  <lowdin_charges> 
26 
1   -0.463385 
2   -0.17845 
3   -0.147594 
4   -0.146866 
5   -0.213574 
6   -0.187264 
7   -0.131196 
8   -0.070584 
9   0.104733 
10   -0.486857 
11   -0.31209 
12   -0.210111 
13   0.149298 
14   0.151404 
15   0.155036 
16   0.155305 
17   0.158863 
18   0.157939 
19   0.163204 
20   0.164091 
21   0.138412 
22   0.149197 
23   0.15317 
24   0.242051 
25   0.26023 
26   0.245037 
 
$$$$ 
 
