PCCDB-ID:  8280 
public computational chemistry database (PCCDB) project, http://pccdb.org 
 
 22 22  0  0  1  0  0  0  0  0999 V2000 
    1.0127   -0.7663    0.5601 C   0  0  0  0  0  0  0  0  0  0  0  0 
    4.2726   -0.4376   -1.6214 C   0  0  0  0  0  0  0  0  0  0  0  0 
    1.7146   -4.2901   -2.4200 C   0  0  0  0  0  0  0  0  0  0  0  0 
    2.2092   -0.1359   -0.1600 C   0  0  0  0  0  0  0  0  0  0  0  0 
    2.2404   -1.8675   -2.0184 C   0  0  0  0  0  0  0  0  0  0  0  0 
    3.1184   -3.3947   -0.5394 C   0  0  0  0  0  0  0  0  0  0  0  0 
    3.0681   -1.1177   -0.9711 C   0  0  1  0  0  0  0  0  0  0  0  0 
    2.3427   -3.2019   -1.6887 N   0  0  0  0  0  0  0  0  0  0  0  0 
    1.6289   -1.3927   -2.9542 O   0  0  0  0  0  0  0  0  0  0  0  0 
    3.3771   -4.4490   -0.0206 O   0  0  0  0  0  0  0  0  0  0  0  0 
    3.5448   -2.1837   -0.0978 O   0  0  0  0  0  0  0  0  0  0  0  0 
    0.4700   -0.0031    1.1271 H   0  0  0  0  0  0  0  0  0  0  0  0 
    1.3360   -1.5390    1.2643 H   0  0  0  0  0  0  0  0  0  0  0  0 
    0.3049   -1.2129   -0.1476 H   0  0  0  0  0  0  0  0  0  0  0  0 
    3.9246    0.3039   -2.3462 H   0  0  0  0  0  0  0  0  0  0  0  0 
    4.8978   -1.1694   -2.1423 H   0  0  0  0  0  0  0  0  0  0  0  0 
    4.8817    0.0612   -0.8614 H   0  0  0  0  0  0  0  0  0  0  0  0 
    1.5700   -3.9635   -3.4513 H   0  0  0  0  0  0  0  0  0  0  0  0 
    0.7439   -4.5440   -1.9822 H   0  0  0  0  0  0  0  0  0  0  0  0 
    2.3653   -5.1650   -2.3795 H   0  0  0  0  0  0  0  0  0  0  0  0 
    2.8670    0.3576    0.5659 H   0  0  0  0  0  0  0  0  0  0  0  0 
    1.8650    0.6344   -0.8597 H   0  0  0  0  0  0  0  0  0  0  0  0 
  1 12  1  0  0  0  0 
  1 13  1  0  0  0  0 
  2 17  1  0  0  0  0 
  3 20  1  0  0  0  0 
  3 19  1  0  0  0  0 
  3  8  1  0  0  0  0 
  4  1  1  0  0  0  0 
  4 21  1  0  0  0  0 
  5  8  1  0  0  0  0 
  5  7  1  0  0  0  0 
  6 11  1  0  0  0  0 
  6 10  2  0  0  0  0 
  7  2  1  6  0  0  0 
  7  4  1  0  0  0  0 
  7 11  1  0  0  0  0 
  8  6  1  0  0  0  0 
  9  5  2  0  0  0  0 
 14  1  1  0  0  0  0 
 15  2  1  0  0  0  0 
 16  2  1  0  0  0  0 
 18  3  1  0  0  0  0 
 22  4  1  0  0  0  0 
M  END 
>  <HBA> 
4 
 
>  <HBD> 
0 
 
>  <TPSA> 
46.61 
 
>  <cid> 
8280 
 
>  <dipole> 
1.69 
 
>  <excitation_energy_1> 
5.266 
 
>  <excitation_energy_2> 
6.313 
 
>  <excitation_energy_3> 
6.688 
 
>  <excitation_energy_4> 
6.85 
 
>  <homo_energy> 
-7.38 
 
>  <homo_lumo_gap> 
6.895 
 
>  <logP> 
0.702 
 
>  <lumo_energy> 
-0.484 
 
>  <melting_point> 
53.18 
 
>  <molecular_refractivity> 
42.37 
 
>  <oscillator_strength_1> 
0.0025 
 
>  <oscillator_strength_2> 
0.0027 
 
>  <oscillator_strength_3> 
0.1546 
 
>  <oscillator_strength_4> 
0.0058 
 
>  <open_babel_can_smiles> 
CC[C@@]1(C)OC(=O)N(C1=O)C 
 
>  <mulliken_charges> 
22 
1   -0.473634 
2   -0.450311 
3   -0.324088 
4   -0.256564 
5   0.59231 
6   0.78106 
7   0.20233 
8   -0.487146 
9   -0.499235 
10   -0.476037 
11   -0.496481 
12   0.157669 
13   0.168957 
14   0.158727 
15   0.176968 
16   0.163588 
17   0.169746 
18   0.193865 
19   0.183044 
20   0.194668 
21   0.155475 
22   0.165086 
 
>  <lowdin_charges> 
22 
1   -0.45617 
2   -0.441674 
3   -0.344844 
4   -0.274672 
5   0.15287 
6   0.212399 
7   0.102427 
8   -0.083652 
9   -0.264276 
10   -0.250074 
11   -0.182767 
12   0.161555 
13   0.160701 
14   0.155771 
15   0.173117 
16   0.164547 
17   0.167359 
18   0.177948 
19   0.1667 
20   0.179758 
21   0.158207 
22   0.164772 
 
$$$$ 
 
