PCCDB-ID:  22060 
public computational chemistry database (PCCDB) project, http://pccdb.org 
 
 11 10  0  0  1  0  0  0  0  0999 V2000 
    1.2675   -0.5980    0.1099 C   0  0  0  0  0  0  0  0  0  0  0  0 
    2.2251    0.3224    0.0163 C   0  0  0  0  0  0  0  0  0  0  0  0 
    2.8773    1.9573   -1.7008 C   0  0  0  0  0  0  0  0  0  0  0  0 
    3.0398    0.5560   -1.2363 C   0  0  1  0  0  0  0  0  0  0  0  0 
    2.7763    3.0671   -2.0263 N   0  0  0  0  0  0  0  0  0  0  0  0 
    4.4180    0.2402   -1.0753 O   0  0  0  0  0  0  0  0  0  0  0  0 
    0.7120   -0.7499    1.0307 H   0  0  0  0  0  0  0  0  0  0  0  0 
    1.0010   -1.2351   -0.7305 H   0  0  0  0  0  0  0  0  0  0  0  0 
    2.4729    0.9575    0.8667 H   0  0  0  0  0  0  0  0  0  0  0  0 
    2.6844   -0.1072   -2.0314 H   0  0  0  0  0  0  0  0  0  0  0  0 
    4.7806    0.8149   -0.3809 H   0  0  0  0  0  0  0  0  0  0  0  0 
  1  7  1  0  0  0  0 
  2  1  2  0  0  0  0 
  2  9  1  0  0  0  0 
  3  4  1  0  0  0  0 
  4 10  1  6  0  0  0 
  4  6  1  0  0  0  0 
  4  2  1  0  0  0  0 
  5  3  3  0  0  0  0 
  6 11  1  0  0  0  0 
  8  1  1  0  0  0  0 
M  END 
>  <HBA> 
2 
 
>  <HBD> 
1 
 
>  <TPSA> 
44.02 
 
>  <cid> 
22060 
 
>  <dipole> 
3.36 
 
>  <excitation_energy_1> 
6.283 
 
>  <excitation_energy_2> 
6.653 
 
>  <excitation_energy_3> 
6.974 
 
>  <excitation_energy_4> 
7.072 
 
>  <homo_energy> 
-7.856 
 
>  <homo_lumo_gap> 
7.108 
 
>  <logP> 
0.057 
 
>  <lumo_energy> 
-0.748 
 
>  <melting_point> 
6.69 
 
>  <molecular_refractivity> 
21.78 
 
>  <oscillator_strength_1> 
0.0449 
 
>  <oscillator_strength_2> 
0.1123 
 
>  <oscillator_strength_3> 
0.0709 
 
>  <oscillator_strength_4> 
0.0565 
 
>  <open_babel_can_smiles> 
O[C@H](C#N)C=C 
 
>  <mulliken_charges> 
11 
1   -0.325506 
2   -0.049858 
3   0.335594 
4   0.025875 
5   -0.460066 
6   -0.589517 
7   0.161898 
8   0.156669 
9   0.147427 
10   0.196216 
11   0.401268 
 
>  <lowdin_charges> 
11 
1   -0.303543 
2   -0.161929 
3   -0.036004 
4   0.007816 
5   -0.110526 
6   -0.429678 
7   0.17117 
8   0.165659 
9   0.162431 
10   0.181995 
11   0.35261 
 
$$$$ 
 
