PCCDB-ID:  40729 
public computational chemistry database (PCCDB) project, http://pccdb.org 
 
 18 18  0  0  1  0  0  0  0  0999 V2000 
   -0.7214    1.2309   -0.0098 C   0  0  0  0  0  0  0  0  0  0  0  0 
   -1.3130   -0.0301   -0.0681 C   0  0  0  0  0  0  0  0  0  0  0  0 
    0.6659    1.3647   -0.0454 C   0  0  0  0  0  0  0  0  0  0  0  0 
    0.8853   -1.0454   -0.2091 C   0  0  0  0  0  0  0  0  0  0  0  0 
   -1.3106   -2.9483   -1.6881 C   0  0  0  0  0  0  0  0  0  0  0  0 
   -0.5029   -1.1660   -0.1701 C   0  0  0  0  0  0  0  0  0  0  0  0 
    1.4695    0.2227   -0.1428 C   0  0  0  0  0  0  0  0  0  0  0  0 
   -1.1430   -2.5426   -0.2684 C   0  0  2  0  0  0  0  0  0  0  0  0 
   -1.4551   -3.3078   -2.7826 N   0  0  0  0  0  0  0  0  0  0  0  0 
    2.8336    0.2822   -0.1778 O   0  0  0  0  0  0  0  0  0  0  0  0 
   -0.3364   -3.4846    0.4230 O   0  0  0  0  0  0  0  0  0  0  0  0 
   -1.3427    2.1182    0.0724 H   0  0  0  0  0  0  0  0  0  0  0  0 
   -2.3946   -0.1291   -0.0360 H   0  0  0  0  0  0  0  0  0  0  0  0 
    1.1247    2.3504    0.0068 H   0  0  0  0  0  0  0  0  0  0  0  0 
    1.5187   -1.9225   -0.2756 H   0  0  0  0  0  0  0  0  0  0  0  0 
   -2.1533   -2.4920    0.1667 H   0  0  0  0  0  0  0  0  0  0  0  0 
    3.1123    1.2103   -0.1390 H   0  0  0  0  0  0  0  0  0  0  0  0 
   -0.7064   -4.3696    0.2731 H   0  0  0  0  0  0  0  0  0  0  0  0 
  1 12  1  0  0  0  0 
  2 13  1  0  0  0  0 
  2  1  2  0  0  0  0 
  3  1  1  0  0  0  0 
  3 14  1  0  0  0  0 
  4  6  2  0  0  0  0 
  4  7  1  0  0  0  0 
  5  8  1  0  0  0  0 
  6  2  1  0  0  0  0 
  7  3  2  0  0  0  0 
  8  6  1  0  0  0  0 
  8 16  1  1  0  0  0 
  8 11  1  0  0  0  0 
  9  5  3  0  0  0  0 
 10  7  1  0  0  0  0 
 10 17  1  0  0  0  0 
 15  4  1  0  0  0  0 
 18 11  1  0  0  0  0 
M  END 
>  <HBA> 
3 
 
>  <HBD> 
2 
 
>  <TPSA> 
64.25 
 
>  <cid> 
40729 
 
>  <dipole> 
3.58 
 
>  <excitation_energy_1> 
4.817 
 
>  <excitation_energy_2> 
5.377 
 
>  <excitation_energy_3> 
5.549 
 
>  <excitation_energy_4> 
5.569 
 
>  <homo_energy> 
-6.297 
 
>  <homo_lumo_gap> 
5.636 
 
>  <logP> 
0.949 
 
>  <lumo_energy> 
-0.661 
 
>  <melting_point> 
99.98 
 
>  <molecular_refractivity> 
39.15 
 
>  <oscillator_strength_1> 
0.0463 
 
>  <oscillator_strength_2> 
0.0023 
 
>  <oscillator_strength_3> 
0.0104 
 
>  <oscillator_strength_4> 
0.0089 
 
>  <open_babel_can_smiles> 
N#C[C@H](c1cccc(c1)O)O 
 
>  <mulliken_charges> 
18 
1   -0.134465 
2   -0.174117 
3   -0.186549 
4   -0.184177 
5   0.339565 
6   0.128434 
7   0.352953 
8   0.007838 
9   -0.463119 
10   -0.637345 
11   -0.603565 
12   0.138643 
13   0.1305 
14   0.124266 
15   0.166698 
16   0.175631 
17   0.409493 
18   0.409316 
 
>  <lowdin_charges> 
18 
1   -0.140317 
2   -0.18099 
3   -0.207713 
4   -0.175095 
5   -0.038212 
6   -0.00174 
7   0.110299 
8   0.011924 
9   -0.112494 
10   -0.372224 
11   -0.429403 
12   0.163472 
13   0.157146 
14   0.156091 
15   0.182553 
16   0.162703 
17   0.357575 
18   0.356427 
 
$$$$ 
 
