PCCDB-ID:  67508 
public computational chemistry database (PCCDB) project, http://pccdb.org 
 
 14 15  0  0  0  0  0  0  0  0999 V2000 
   -2.0898   -0.7323    0.0002 C   0  0  0  0  0  0  0  0  0  0  0  0 
   -2.0878    0.6902    0.0012 C   0  0  0  0  0  0  0  0  0  0  0  0 
   -0.9097   -1.4404    0.0002 C   0  0  0  0  0  0  0  0  0  0  0  0 
   -0.9036    1.3786    0.0022 C   0  0  0  0  0  0  0  0  0  0  0  0 
    2.2542    0.0617    0.0015 C   0  0  0  0  0  0  0  0  0  0  0  0 
    0.3104   -0.7279    0.0011 C   0  0  0  0  0  0  0  0  0  0  0  0 
    1.5909   -1.1148    0.0003 N   0  0  0  0  0  0  0  0  0  0  0  0 
    1.5170    1.1755    0.0028 N   0  0  0  0  0  0  0  0  0  0  0  0 
    0.2584    0.6643    0.0027 N   0  0  0  0  0  0  0  0  0  0  0  0 
   -3.0378   -1.2612   -0.0000 H   0  0  0  0  0  0  0  0  0  0  0  0 
   -3.0197    1.2440    0.0005 H   0  0  0  0  0  0  0  0  0  0  0  0 
   -0.8798   -2.5239    0.0001 H   0  0  0  0  0  0  0  0  0  0  0  0 
   -0.7984    2.4560    0.0035 H   0  0  0  0  0  0  0  0  0  0  0  0 
    3.3348    0.1229    0.0015 H   0  0  0  0  0  0  0  0  0  0  0  0 
  1  3  1  0  0  0  0 
  1  2  1  0  0  0  0 
  2  4  2  0  0  0  0 
  3  6  2  0  0  0  0 
  4  9  1  0  0  0  0 
  4 13  1  0  0  0  0 
  5  8  1  0  0  0  0 
  6  9  1  0  0  0  0 
  7  6  1  0  0  0  0 
  7  5  2  0  0  0  0 
  9  8  1  0  0  0  0 
 10  1  1  0  0  0  0 
 11  2  1  0  0  0  0 
 12  3  1  0  0  0  0 
 14  5  1  0  0  0  0 
M  RAD  1   8   2 
M  END 
>  <HBA> 
3 
 
>  <HBD> 
0 
 
>  <TPSA> 
30.19 
 
>  <cid> 
67508 
 
>  <dipole> 
3.19 
 
>  <excitation_energy_1> 
4.658 
 
>  <excitation_energy_2> 
4.948 
 
>  <excitation_energy_3> 
5.391 
 
>  <excitation_energy_4> 
5.887 
 
>  <homo_energy> 
-6.427 
 
>  <homo_lumo_gap> 
5.246 
 
>  <logP> 
0.729 
 
>  <lumo_energy> 
-1.181 
 
>  <melting_point> 
71.88 
 
>  <molecular_refractivity> 
32.99 
 
>  <oscillator_strength_1> 
0.0557 
 
>  <oscillator_strength_2> 
0.0086 
 
>  <oscillator_strength_3> 
0.0008 
 
>  <oscillator_strength_4> 
0.0001 
 
>  <open_babel_can_smiles> 
C1C=Cn2c(=C1)nc[n]2 
 
>  <mulliken_charges> 
14 
1   -0.111513 
2   -0.193673 
3   -0.195109 
4   0.104288 
5   0.168712 
6   0.544055 
7   -0.506372 
8   -0.288082 
9   -0.342043 
10   0.150803 
11   0.154256 
12   0.165642 
13   0.188331 
14   0.160704 
 
>  <lowdin_charges> 
14 
1   -0.143328 
2   -0.181371 
3   -0.157685 
4   -0.084219 
5   -0.076144 
6   0.064565 
7   -0.208898 
8   -0.175252 
9   0.086232 
10   0.169384 
11   0.174368 
12   0.179842 
13   0.184218 
14   0.168289 
 
$$$$ 
 
