PCCDB-ID:  6556 
public computational chemistry database (PCCDB) project, http://pccdb.org 
 
 17 16  0  0  0  0  0  0  0  0999 V2000 
    2.8107    1.3646    0.6433 C   0  0  0  0  0  0  0  0  0  0  0  0 
    2.4934   -2.5232    0.2061 C   0  0  0  0  0  0  0  0  0  0  0  0 
    4.5778   -1.2334    0.8083 C   0  0  0  0  0  0  0  0  0  0  0  0 
    2.4742    0.0002    0.0307 C   0  0  0  0  0  0  0  0  0  0  0  0 
    3.0417   -1.2139    0.7931 C   0  0  0  0  0  0  0  0  0  0  0  0 
    2.3212    2.1741    0.0896 H   0  0  0  0  0  0  0  0  0  0  0  0 
    3.8876    1.5660    0.6318 H   0  0  0  0  0  0  0  0  0  0  0  0 
    2.4726    1.4245    1.6855 H   0  0  0  0  0  0  0  0  0  0  0  0 
    2.8579   -3.3941    0.7638 H   0  0  0  0  0  0  0  0  0  0  0  0 
    2.8061   -2.6447   -0.8394 H   0  0  0  0  0  0  0  0  0  0  0  0 
    1.3972   -2.5444    0.2297 H   0  0  0  0  0  0  0  0  0  0  0  0 
    4.9530   -2.1067    1.3552 H   0  0  0  0  0  0  0  0  0  0  0  0 
    4.9975   -0.3415    1.2858 H   0  0  0  0  0  0  0  0  0  0  0  0 
    4.9770   -1.2856   -0.2135 H   0  0  0  0  0  0  0  0  0  0  0  0 
    2.8331   -0.0340   -1.0091 H   0  0  0  0  0  0  0  0  0  0  0  0 
    1.3814   -0.1040   -0.0241 H   0  0  0  0  0  0  0  0  0  0  0  0 
    2.6949   -1.1415    1.8362 H   0  0  0  0  0  0  0  0  0  0  0  0 
  1  8  1  0  0  0  0 
  2 11  1  0  0  0  0 
  2  9  1  0  0  0  0 
  2  5  1  0  0  0  0 
  3 13  1  0  0  0  0 
  3 12  1  0  0  0  0 
  4  1  1  0  0  0  0 
  4  5  1  0  0  0  0 
  5  3  1  0  0  0  0 
  5 17  1  0  0  0  0 
  6  1  1  0  0  0  0 
  7  1  1  0  0  0  0 
 10  2  1  0  0  0  0 
 14  3  1  0  0  0  0 
 15  4  1  0  0  0  0 
 16  4  1  0  0  0  0 
M  END 
>  <HBA> 
0 
 
>  <HBD> 
0 
 
>  <TPSA> 
0.0 
 
>  <cid> 
6556 
 
>  <dipole> 
0.06 
 
>  <excitation_energy_1> 
7.964 
 
>  <excitation_energy_2> 
8.116 
 
>  <excitation_energy_3> 
8.205 
 
>  <excitation_energy_4> 
8.42 
 
>  <homo_energy> 
-8.406 
 
>  <homo_lumo_gap> 
10.757 
 
>  <logP> 
2.052 
 
>  <lumo_energy> 
2.351 
 
>  <melting_point> 
-25.9 
 
>  <molecular_refractivity> 
26.15 
 
>  <oscillator_strength_1> 
0.0095 
 
>  <oscillator_strength_2> 
0.0311 
 
>  <oscillator_strength_3> 
0.0042 
 
>  <oscillator_strength_4> 
0.0424 
 
>  <open_babel_can_smiles> 
CCC(C)C 
 
>  <mulliken_charges> 
17 
1   -0.447953 
2   -0.441605 
3   -0.443973 
4   -0.239855 
5   -0.05911 
6   0.141453 
7   0.145512 
8   0.140374 
9   0.138317 
10   0.1377 
11   0.138432 
12   0.139013 
13   0.143617 
14   0.136889 
15   0.125563 
16   0.127421 
17   0.118204 
 
>  <lowdin_charges> 
17 
1   -0.445173 
2   -0.441686 
3   -0.447688 
4   -0.270178 
5   -0.118843 
6   0.150754 
7   0.145625 
8   0.144614 
9   0.147559 
10   0.143669 
11   0.144501 
12   0.148509 
13   0.14904 
14   0.14377 
15   0.135911 
16   0.137568 
17   0.132049 
 
$$$$ 
 
