PCCDB-ID:  19751 
public computational chemistry database (PCCDB) project, http://pccdb.org 
 
 24 24  0  0  0  0  0  0  0  0999 V2000 
    3.5016   -0.2528    1.2351 C   0  0  0  0  0  0  0  0  0  0  0  0 
    1.1235    0.3948    0.6948 C   0  0  0  0  0  0  0  0  0  0  0  0 
    1.3580    2.2434   -2.2635 C   0  0  0  0  0  0  0  0  0  0  0  0 
    1.9389    3.0657   -1.0828 C   0  0  0  0  0  0  0  0  0  0  0  0 
    2.1348    0.8962   -2.2893 C   0  0  0  0  0  0  0  0  0  0  0  0 
    3.2376    2.3419   -0.6686 C   0  0  0  0  0  0  0  0  0  0  0  0 
    2.4728   -0.0539    0.1106 C   0  0  0  0  0  0  0  0  0  0  0  0 
    3.0339    0.8470   -1.0228 C   0  0  0  0  0  0  0  0  0  0  0  0 
    3.1366   -0.9729    1.9773 H   0  0  0  0  0  0  0  0  0  0  0  0 
    3.7070    0.6858    1.7645 H   0  0  0  0  0  0  0  0  0  0  0  0 
    4.4544   -0.6291    0.8435 H   0  0  0  0  0  0  0  0  0  0  0  0 
    0.7420   -0.3589    1.3942 H   0  0  0  0  0  0  0  0  0  0  0  0 
    0.3633    0.5368   -0.0816 H   0  0  0  0  0  0  0  0  0  0  0  0 
    1.2177    1.3343    1.2525 H   0  0  0  0  0  0  0  0  0  0  0  0 
    1.4826    2.7757   -3.2131 H   0  0  0  0  0  0  0  0  0  0  0  0 
    0.2809    2.0863   -2.1387 H   0  0  0  0  0  0  0  0  0  0  0  0 
    1.2297    3.0829   -0.2487 H   0  0  0  0  0  0  0  0  0  0  0  0 
    2.1240    4.1106   -1.3557 H   0  0  0  0  0  0  0  0  0  0  0  0 
    2.7661    0.8510   -3.1844 H   0  0  0  0  0  0  0  0  0  0  0  0 
    1.4635    0.0309   -2.3430 H   0  0  0  0  0  0  0  0  0  0  0  0 
    3.4918    2.5068    0.3846 H   0  0  0  0  0  0  0  0  0  0  0  0 
    4.0779    2.7325   -1.2572 H   0  0  0  0  0  0  0  0  0  0  0  0 
    2.3100   -1.0392   -0.3534 H   0  0  0  0  0  0  0  0  0  0  0  0 
    4.0041    0.4059   -1.2886 H   0  0  0  0  0  0  0  0  0  0  0  0 
  1 10  1  0  0  0  0 
  1  9  1  0  0  0  0 
  2 14  1  0  0  0  0 
  2 12  1  0  0  0  0 
  3 16  1  0  0  0  0 
  3  4  1  0  0  0  0 
  4  6  1  0  0  0  0 
  4 17  1  0  0  0  0 
  5  3  1  0  0  0  0 
  5  8  1  0  0  0  0 
  6 21  1  0  0  0  0 
  7  2  1  0  0  0  0 
  7  1  1  0  0  0  0 
  8  6  1  0  0  0  0 
  8  7  1  0  0  0  0 
 11  1  1  0  0  0  0 
 13  2  1  0  0  0  0 
 15  3  1  0  0  0  0 
 18  4  1  0  0  0  0 
 19  5  1  0  0  0  0 
 20  5  1  0  0  0  0 
 22  6  1  0  0  0  0 
 23  7  1  0  0  0  0 
 24  8  1  0  0  0  0 
M  END 
>  <HBA> 
0 
 
>  <HBD> 
0 
 
>  <TPSA> 
0.0 
 
>  <cid> 
19751 
 
>  <dipole> 
0.1 
 
>  <excitation_energy_1> 
7.403 
 
>  <excitation_energy_2> 
7.472 
 
>  <excitation_energy_3> 
7.771 
 
>  <excitation_energy_4> 
7.856 
 
>  <homo_energy> 
-7.981 
 
>  <homo_lumo_gap> 
9.908 
 
>  <logP> 
2.833 
 
>  <lumo_energy> 
1.927 
 
>  <melting_point> 
-5.31 
 
>  <molecular_refractivity> 
38.46 
 
>  <oscillator_strength_1> 
0.0006 
 
>  <oscillator_strength_2> 
0.0058 
 
>  <oscillator_strength_3> 
0.0468 
 
>  <oscillator_strength_4> 
0.0456 
 
>  <open_babel_can_smiles> 
CC(C1CCCC1)C 
 
>  <mulliken_charges> 
24 
1   -0.447831 
2   -0.452739 
3   -0.271325 
4   -0.270313 
5   -0.284257 
6   -0.279232 
7   -0.069848 
8   -0.074255 
9   0.138289 
10   0.141278 
11   0.138198 
12   0.138986 
13   0.144561 
14   0.143717 
15   0.134176 
16   0.135396 
17   0.138469 
18   0.131562 
19   0.133862 
20   0.132845 
21   0.133652 
22   0.131237 
23   0.11882 
24   0.114749 
 
>  <lowdin_charges> 
24 
1   -0.447529 
2   -0.450633 
3   -0.286134 
4   -0.285642 
5   -0.288868 
6   -0.285827 
7   -0.12129 
8   -0.133346 
9   0.148331 
10   0.145195 
11   0.146309 
12   0.149115 
13   0.150087 
14   0.146426 
15   0.143082 
16   0.140872 
17   0.142948 
18   0.141921 
19   0.144416 
20   0.143432 
21   0.141904 
22   0.143134 
23   0.134935 
24   0.13716 
 
$$$$ 
 
