PCCDB-ID:  17826 
public computational chemistry database (PCCDB) project, http://pccdb.org 
 
 27 27  0  0  0  0  0  0  0  0999 V2000 
   -2.0596   -1.2007    1.9493 C   0  0  0  0  0  0  0  0  0  0  0  0 
   -0.9900   -0.9133    2.7987 C   0  0  0  0  0  0  0  0  0  0  0  0 
   -1.8770   -1.1382    0.5665 C   0  0  0  0  0  0  0  0  0  0  0  0 
    0.2527   -0.5667    2.2664 C   0  0  0  0  0  0  0  0  0  0  0  0 
   -0.6326   -0.7910    0.0398 C   0  0  0  0  0  0  0  0  0  0  0  0 
    1.8082   -0.1640    0.3026 C   0  0  0  0  0  0  0  0  0  0  0  0 
    2.6598   -1.4140    0.0279 C   0  0  0  0  0  0  0  0  0  0  0  0 
    4.8196   -2.1908   -0.8852 C   0  0  0  0  0  0  0  0  0  0  0  0 
    4.4830   -2.7168   -2.2852 C   0  0  0  0  0  0  0  0  0  0  0  0 
    0.4506   -0.5013    0.8809 C   0  0  0  0  0  0  0  0  0  0  0  0 
    3.9458   -1.0503   -0.5709 N   0  0  0  0  0  0  0  0  0  0  0  0 
    4.5193   -1.6617   -3.2255 O   0  0  0  0  0  0  0  0  0  0  0  0 
   -3.0294   -1.4663    2.3615 H   0  0  0  0  0  0  0  0  0  0  0  0 
   -1.1237   -0.9537    3.8766 H   0  0  0  0  0  0  0  0  0  0  0  0 
   -2.7055   -1.3542   -0.1031 H   0  0  0  0  0  0  0  0  0  0  0  0 
    1.0802   -0.3382    2.9352 H   0  0  0  0  0  0  0  0  0  0  0  0 
   -0.4996   -0.7380   -1.0389 H   0  0  0  0  0  0  0  0  0  0  0  0 
    1.6986    0.3909   -0.6367 H   0  0  0  0  0  0  0  0  0  0  0  0 
    2.3529    0.4927    0.9955 H   0  0  0  0  0  0  0  0  0  0  0  0 
    2.1231   -2.0654   -0.6718 H   0  0  0  0  0  0  0  0  0  0  0  0 
    2.7803   -1.9925    0.9625 H   0  0  0  0  0  0  0  0  0  0  0  0 
    5.8529   -1.8269   -0.8927 H   0  0  0  0  0  0  0  0  0  0  0  0 
    4.7517   -3.0011   -0.1380 H   0  0  0  0  0  0  0  0  0  0  0  0 
    3.4956   -3.2117   -2.2750 H   0  0  0  0  0  0  0  0  0  0  0  0 
    5.2186   -3.4687   -2.5926 H   0  0  0  0  0  0  0  0  0  0  0  0 
    4.4314   -0.4077    0.0508 H   0  0  0  0  0  0  0  0  0  0  0  0 
    4.1179   -0.9115   -2.7449 H   0  0  0  0  0  0  0  0  0  0  0  0 
  1 13  1  0  0  0  0 
  1  2  2  0  0  0  0 
  2 14  1  0  0  0  0 
  3  1  1  0  0  0  0 
  4  2  1  0  0  0  0 
  4 16  1  0  0  0  0 
  5  3  2  0  0  0  0 
  5 10  1  0  0  0  0 
  6 10  1  0  0  0  0 
  6 19  1  0  0  0  0 
  7  6  1  0  0  0  0 
  7 21  1  0  0  0  0 
  8 11  1  0  0  0  0 
  8 23  1  0  0  0  0 
  9 24  1  0  0  0  0 
  9  8  1  0  0  0  0 
 10  4  2  0  0  0  0 
 11  7  1  0  0  0  0 
 11 26  1  0  0  0  0 
 12 27  1  0  0  0  0 
 12  9  1  0  0  0  0 
 15  3  1  0  0  0  0 
 17  5  1  0  0  0  0 
 18  6  1  0  0  0  0 
 20  7  1  0  0  0  0 
 22  8  1  0  0  0  0 
 25  9  1  0  0  0  0 
M  END 
>  <HBA> 
2 
 
>  <HBD> 
2 
 
>  <TPSA> 
32.26 
 
>  <cid> 
17826 
 
>  <dipole> 
2.91 
 
>  <excitation_energy_1> 
5.307 
 
>  <excitation_energy_2> 
5.571 
 
>  <excitation_energy_3> 
5.744 
 
>  <excitation_energy_4> 
5.783 
 
>  <homo_energy> 
-6.406 
 
>  <homo_lumo_gap> 
6.37 
 
>  <logP> 
1.202 
 
>  <lumo_energy> 
-0.035 
 
>  <melting_point> 
50.96 
 
>  <molecular_refractivity> 
49.79 
 
>  <oscillator_strength_1> 
0.0005 
 
>  <oscillator_strength_2> 
0.0025 
 
>  <oscillator_strength_3> 
0.0051 
 
>  <oscillator_strength_4> 
0.0012 
 
>  <open_babel_can_smiles> 
OCCNCCc1ccccc1 
 
>  <mulliken_charges> 
27 
1   -0.130693 
2   -0.127631 
3   -0.127989 
4   -0.180029 
5   -0.180559 
6   -0.359901 
7   -0.115693 
8   -0.158561 
9   -0.007238 
10   0.168552 
11   -0.579233 
12   -0.630382 
13   0.12934 
14   0.129213 
15   0.130523 
16   0.120671 
17   0.126885 
18   0.155715 
19   0.136816 
20   0.154367 
21   0.124634 
22   0.146074 
23   0.121172 
24   0.114929 
25   0.137879 
26   0.303774 
27   0.397366 
 
>  <lowdin_charges> 
27 
1   -0.159483 
2   -0.152604 
3   -0.155492 
4   -0.169566 
5   -0.164104 
6   -0.278106 
7   -0.202431 
8   -0.225803 
9   -0.140502 
10   -0.001749 
11   -0.368248 
12   -0.478895 
13   0.157491 
14   0.155484 
15   0.158979 
16   0.154107 
17   0.153934 
18   0.155947 
19   0.14664 
20   0.149464 
21   0.124441 
22   0.148352 
23   0.129515 
24   0.120186 
25   0.145582 
26   0.259433 
27   0.337428 
 
$$$$ 
 
