PCCDB-ID:  27488 
public computational chemistry database (PCCDB) project, http://pccdb.org 
 
 10  9  0  0  0  0  0  0  0  0999 V2000 
    0.9444    0.8813    0.2607 C   0  0  0  0  0  0  0  0  0  0  0  0 
    2.5914   -0.1471   -1.2045 C   0  0  0  0  0  0  0  0  0  0  0  0 
    1.9613    0.0273    0.0708 C   0  0  0  0  0  0  0  0  0  0  0  0 
    2.4773   -0.7923    1.2414 C   0  0  0  0  0  0  0  0  0  0  0  0 
    3.1636   -0.3565   -2.1968 N   0  0  0  0  0  0  0  0  0  0  0  0 
    1.9984   -0.6989    2.3433 O   0  0  0  0  0  0  0  0  0  0  0  0 
    3.4996   -1.6317    0.9861 O   0  0  0  0  0  0  0  0  0  0  0  0 
    0.5429    1.4864   -0.5448 H   0  0  0  0  0  0  0  0  0  0  0  0 
    0.5111    0.9673    1.2519 H   0  0  0  0  0  0  0  0  0  0  0  0 
    3.7735   -1.5915    0.0516 H   0  0  0  0  0  0  0  0  0  0  0  0 
  1  9  1  0  0  0  0 
  2  3  1  0  0  0  0 
  3  1  2  0  0  0  0 
  3  4  1  0  0  0  0 
  4  6  2  0  0  0  0 
  5  2  3  0  0  0  0 
  7  4  1  0  0  0  0 
  8  1  1  0  0  0  0 
 10  7  1  0  0  0  0 
M  END 
>  <HBA> 
3 
 
>  <HBD> 
1 
 
>  <TPSA> 
61.09 
 
>  <cid> 
27488 
 
>  <dipole> 
2.43 
 
>  <excitation_energy_1> 
4.293 
 
>  <excitation_energy_2> 
5.536 
 
>  <excitation_energy_3> 
6.066 
 
>  <excitation_energy_4> 
6.182 
 
>  <homo_energy> 
-8.177 
 
>  <homo_lumo_gap> 
5.521 
 
>  <logP> 
0.151 
 
>  <lumo_energy> 
-2.656 
 
>  <melting_point> 
68.65 
 
>  <molecular_refractivity> 
22.39 
 
>  <oscillator_strength_1> 
0.0 
 
>  <oscillator_strength_2> 
0.0875 
 
>  <oscillator_strength_3> 
0.1433 
 
>  <oscillator_strength_4> 
0.0003 
 
>  <open_babel_can_smiles> 
OC(=O)C(=C)C#N 
 
>  <mulliken_charges> 
10 
1   -0.317117 
2   0.234123 
3   0.106626 
4   0.601907 
5   -0.462813 
6   -0.435218 
7   -0.569987 
8   0.196573 
9   0.214648 
10   0.431259 
 
>  <lowdin_charges> 
10 
1   -0.211165 
2   -0.027954 
3   -0.068657 
4   0.201301 
5   -0.098282 
6   -0.224671 
7   -0.330076 
8   0.189581 
9   0.199834 
10   0.370089 
 
$$$$ 
 
