PCCDB-ID:  61032 
public computational chemistry database (PCCDB) project, http://pccdb.org 
 
 13 12  0  0  0  0  0  0  0  0999 V2000 
    1.3795   -0.3767   -0.1346 C   0  0  0  0  0  0  0  0  0  0  0  0 
    4.5414    1.3998    0.4017 C   0  0  0  0  0  0  0  0  0  0  0  0 
    4.9492    2.7762    0.6880 C   0  0  0  0  0  0  0  0  0  0  0  0 
    3.0179    1.2593    0.2809 C   0  0  0  0  0  0  0  0  0  0  0  0 
    5.2544    3.8728    0.9146 N   0  0  0  0  0  0  0  0  0  0  0  0 
    2.7596   -0.0983    0.0035 O   0  0  0  0  0  0  0  0  0  0  0  0 
    1.2890   -1.4449   -0.3452 H   0  0  0  0  0  0  0  0  0  0  0  0 
    0.9318    0.1927   -0.9642 H   0  0  0  0  0  0  0  0  0  0  0  0 
    0.8243   -0.1438    0.7876 H   0  0  0  0  0  0  0  0  0  0  0  0 
    4.9035    0.7396    1.1980 H   0  0  0  0  0  0  0  0  0  0  0  0 
    5.0098    1.0680   -0.5320 H   0  0  0  0  0  0  0  0  0  0  0  0 
    2.6392    1.9097   -0.5241 H   0  0  0  0  0  0  0  0  0  0  0  0 
    2.5317    1.5741    1.2184 H   0  0  0  0  0  0  0  0  0  0  0  0 
  1  6  1  0  0  0  0 
  1  9  1  0  0  0  0 
  2  3  1  0  0  0  0 
  2 10  1  0  0  0  0 
  3  5  3  0  0  0  0 
  4  2  1  0  0  0  0 
  4 13  1  0  0  0  0 
  6  4  1  0  0  0  0 
  7  1  1  0  0  0  0 
  8  1  1  0  0  0  0 
 11  2  1  0  0  0  0 
 12  4  1  0  0  0  0 
M  END 
>  <HBA> 
2 
 
>  <HBD> 
0 
 
>  <TPSA> 
33.02 
 
>  <cid> 
61032 
 
>  <dipole> 
3.75 
 
>  <excitation_energy_1> 
6.741 
 
>  <excitation_energy_2> 
7.193 
 
>  <excitation_energy_3> 
7.4 
 
>  <excitation_energy_4> 
7.575 
 
>  <homo_energy> 
-7.467 
 
>  <homo_lumo_gap> 
8.302 
 
>  <logP> 
0.546 
 
>  <lumo_energy> 
0.835 
 
>  <melting_point> 
-0.28 
 
>  <molecular_refractivity> 
22.18 
 
>  <oscillator_strength_1> 
0.0154 
 
>  <oscillator_strength_2> 
0.0152 
 
>  <oscillator_strength_3> 
0.0001 
 
>  <oscillator_strength_4> 
0.0269 
 
>  <open_babel_can_smiles> 
COCCC#N 
 
>  <mulliken_charges> 
13 
1   -0.198946 
2   -0.354262 
3   0.344618 
4   -0.005374 
5   -0.468175 
6   -0.46212 
7   0.166766 
8   0.138323 
9   0.138301 
10   0.207172 
11   0.207282 
12   0.143218 
13   0.143197 
 
>  <lowdin_charges> 
13 
1   -0.277454 
2   -0.27803 
3   -0.018249 
4   -0.121874 
5   -0.123702 
6   -0.270599 
7   0.158482 
8   0.137562 
9   0.136982 
10   0.18969 
11   0.189016 
12   0.139615 
13   0.13856 
 
$$$$ 
 
