PCCDB-ID:  13265 
public computational chemistry database (PCCDB) project, http://pccdb.org 
 
 28 29  0  0  0  0  0  0  0  0999 V2000 
   -1.4322   -1.6329    0.2366 C   0  0  0  0  0  0  0  0  0  0  0  0 
   -1.2043   -0.2566    0.2615 C   0  0  0  0  0  0  0  0  0  0  0  0 
   -0.3469   -2.5030    0.0926 C   0  0  0  0  0  0  0  0  0  0  0  0 
    0.0920    0.2401    0.1420 C   0  0  0  0  0  0  0  0  0  0  0  0 
    0.9471   -2.0062   -0.0258 C   0  0  0  0  0  0  0  0  0  0  0  0 
    2.5349   -0.0320   -0.1294 C   0  0  0  0  0  0  0  0  0  0  0  0 
    3.6969   -0.6878   -0.3354 C   0  0  0  0  0  0  0  0  0  0  0  0 
    6.1320   -0.9637   -0.6842 C   0  0  0  0  0  0  0  0  0  0  0  0 
    5.3113    1.2676   -0.3628 C   0  0  0  0  0  0  0  0  0  0  0  0 
    7.4281   -0.4804   -0.8133 C   0  0  0  0  0  0  0  0  0  0  0  0 
    6.6005    1.7620   -0.4896 C   0  0  0  0  0  0  0  0  0  0  0  0 
    1.1979   -0.6190   -0.0067 C   0  0  0  0  0  0  0  0  0  0  0  0 
    5.0348   -0.1117   -0.4569 C   0  0  0  0  0  0  0  0  0  0  0  0 
    7.6875    0.8966   -0.7186 C   0  0  0  0  0  0  0  0  0  0  0  0 
    8.9905    1.3909   -0.7879 N   0  0  0  0  0  0  0  0  0  0  0  0 
   -2.4411   -2.0254    0.3305 H   0  0  0  0  0  0  0  0  0  0  0  0 
   -2.0368    0.4332    0.3741 H   0  0  0  0  0  0  0  0  0  0  0  0 
   -0.5112   -3.5775    0.0758 H   0  0  0  0  0  0  0  0  0  0  0  0 
    0.2600    1.3147    0.1616 H   0  0  0  0  0  0  0  0  0  0  0  0 
    1.7727   -2.7042   -0.1294 H   0  0  0  0  0  0  0  0  0  0  0  0 
    2.5544    1.0538   -0.0443 H   0  0  0  0  0  0  0  0  0  0  0  0 
    3.6715   -1.7730   -0.4300 H   0  0  0  0  0  0  0  0  0  0  0  0 
    5.9594   -2.0348   -0.7649 H   0  0  0  0  0  0  0  0  0  0  0  0 
    4.5022    1.9708   -0.1878 H   0  0  0  0  0  0  0  0  0  0  0  0 
    8.2505   -1.1715   -0.9855 H   0  0  0  0  0  0  0  0  0  0  0  0 
    6.7792    2.8320   -0.4065 H   0  0  0  0  0  0  0  0  0  0  0  0 
    9.6489    0.8009   -1.2814 H   0  0  0  0  0  0  0  0  0  0  0  0 
    9.0693    2.3587   -1.0747 H   0  0  0  0  0  0  0  0  0  0  0  0 
  1  2  1  0  0  0  0 
  1 16  1  0  0  0  0 
  2 17  1  0  0  0  0 
  3  1  2  0  0  0  0 
  4 19  1  0  0  0  0 
  4  2  2  0  0  0  0 
  5 12  2  0  0  0  0 
  5  3  1  0  0  0  0 
  6 21  1  0  0  0  0 
  6 12  1  0  0  0  0 
  7  6  2  0  0  0  0 
  8 13  2  0  0  0  0 
  9 24  1  0  0  0  0 
 10 14  2  0  0  0  0 
 10  8  1  0  0  0  0 
 11 26  1  0  0  0  0 
 11  9  2  0  0  0  0 
 12  4  1  0  0  0  0 
 13  9  1  0  0  0  0 
 13  7  1  0  0  0  0 
 14 11  1  0  0  0  0 
 15 14  1  0  0  0  0 
 18  3  1  0  0  0  0 
 20  5  1  0  0  0  0 
 22  7  1  0  0  0  0 
 23  8  1  0  0  0  0 
 25 10  1  0  0  0  0 
 27 15  1  0  0  0  0 
 28 15  1  0  0  0  0 
M  END 
>  <HBA> 
1 
 
>  <HBD> 
1 
 
>  <TPSA> 
26.02 
 
>  <cid> 
13265 
 
>  <dipole> 
2.63 
 
>  <excitation_energy_1> 
3.598 
 
>  <excitation_energy_2> 
4.189 
 
>  <excitation_energy_3> 
4.34 
 
>  <excitation_energy_4> 
4.388 
 
>  <homo_energy> 
-4.925 
 
>  <homo_lumo_gap> 
3.88 
 
>  <logP> 
4.02 
 
>  <lumo_energy> 
-1.045 
 
>  <melting_point> 
117.95 
 
>  <molecular_refractivity> 
66.22 
 
>  <oscillator_strength_1> 
0.9486 
 
>  <oscillator_strength_2> 
0.0948 
 
>  <oscillator_strength_3> 
0.0269 
 
>  <oscillator_strength_4> 
0.0016 
 
>  <open_babel_can_smiles> 
Nc1ccc(cc1)/C=C/c1ccccc1 
 
>  <mulliken_charges> 
28 
1   -0.131627 
2   -0.129491 
3   -0.130751 
4   -0.199778 
5   -0.182646 
6   -0.197523 
7   -0.18742 
8   -0.207173 
9   -0.189221 
10   -0.173848 
11   -0.172438 
12   0.184672 
13   0.181156 
14   0.314835 
15   -0.787611 
16   0.12616 
17   0.126774 
18   0.12676 
19   0.123567 
20   0.126537 
21   0.120522 
22   0.122771 
23   0.125886 
24   0.129297 
25   0.117945 
26   0.118612 
27   0.321993 
28   0.32204 
 
>  <lowdin_charges> 
28 
1   -0.161923 
2   -0.157385 
3   -0.152311 
4   -0.161851 
5   -0.161333 
6   -0.169199 
7   -0.15074 
8   -0.14558 
9   -0.144275 
10   -0.201882 
11   -0.193538 
12   0.002749 
13   -0.026431 
14   0.062337 
15   -0.483451 
16   0.155744 
17   0.157321 
18   0.154279 
19   0.152122 
20   0.156261 
21   0.148051 
22   0.149056 
23   0.153872 
24   0.158436 
25   0.15416 
26   0.151543 
27   0.278244 
28   0.275722 
 
$$$$ 
 
