PCCDB-ID:  37616 
public computational chemistry database (PCCDB) project, http://pccdb.org 
 
 28 29  0  0  0  0  0  0  0  0999 V2000 
    1.0645    1.9264   -3.8704 C   0  0  0  0  0  0  0  0  0  0  0  0 
    0.2343    1.4599   -2.8463 C   0  0  0  0  0  0  0  0  0  0  0  0 
    2.4290    1.6438   -3.8272 C   0  0  0  0  0  0  0  0  0  0  0  0 
    0.7607    0.7268   -1.7863 C   0  0  0  0  0  0  0  0  0  0  0  0 
    2.9672    0.9139   -2.7642 C   0  0  0  0  0  0  0  0  0  0  0  0 
    2.0010   -3.3885    2.1414 C   0  0  0  0  0  0  0  0  0  0  0  0 
    4.3310   -4.0768    2.1055 C   0  0  0  0  0  0  0  0  0  0  0  0 
    2.3577   -2.1263    1.6803 C   0  0  0  0  0  0  0  0  0  0  0  0 
    4.6897   -2.8164    1.6417 C   0  0  0  0  0  0  0  0  0  0  0  0 
    2.6033   -5.6713    2.8310 C   0  0  0  0  0  0  0  0  0  0  0  0 
    2.9810   -4.3729    2.3560 C   0  0  0  0  0  0  0  0  0  0  0  0 
    2.1375    0.4548   -1.7232 C   0  0  0  0  0  0  0  0  0  0  0  0 
    3.7033   -1.8536    1.4276 C   0  0  0  0  0  0  0  0  0  0  0  0 
    3.5939    0.1089    0.0575 C   0  0  0  0  0  0  0  0  0  0  0  0 
    2.2965   -6.7250    3.2175 N   0  0  0  0  0  0  0  0  0  0  0  0 
    2.6304   -0.3185   -0.6524 N   0  0  0  0  0  0  0  0  0  0  0  0 
    4.2369    1.2896   -0.0006 O   0  0  0  0  0  0  0  0  0  0  0  0 
    4.1639   -0.5974    1.0597 O   0  0  0  0  0  0  0  0  0  0  0  0 
    0.6478    2.4934   -4.6976 H   0  0  0  0  0  0  0  0  0  0  0  0 
   -0.8324    1.6659   -2.8758 H   0  0  0  0  0  0  0  0  0  0  0  0 
    3.0830    1.9828   -4.6263 H   0  0  0  0  0  0  0  0  0  0  0  0 
    0.1195    0.3538   -0.9934 H   0  0  0  0  0  0  0  0  0  0  0  0 
    4.0236    0.6557   -2.7608 H   0  0  0  0  0  0  0  0  0  0  0  0 
    0.9595   -3.6178    2.3412 H   0  0  0  0  0  0  0  0  0  0  0  0 
    5.0893   -4.8342    2.2739 H   0  0  0  0  0  0  0  0  0  0  0  0 
    1.6057   -1.3682    1.5079 H   0  0  0  0  0  0  0  0  0  0  0  0 
    5.7260   -2.5629    1.4457 H   0  0  0  0  0  0  0  0  0  0  0  0 
    3.8244    1.8113   -0.7149 H   0  0  0  0  0  0  0  0  0  0  0  0 
  1  3  2  0  0  0  0 
  1  2  1  0  0  0  0 
  2  4  2  0  0  0  0 
  3  5  1  0  0  0  0 
  4 12  1  0  0  0  0 
  4 22  1  0  0  0  0 
  5 23  1  0  0  0  0 
  5 12  2  0  0  0  0 
  6 24  1  0  0  0  0 
  6 11  1  0  0  0  0 
  7 25  1  0  0  0  0 
  7 11  2  0  0  0  0 
  8  6  2  0  0  0  0 
  9  7  1  0  0  0  0 
 10 15  3  0  0  0  0 
 11 10  1  0  0  0  0 
 12 16  1  0  0  0  0 
 13  9  2  0  0  0  0 
 13  8  1  0  0  0  0 
 14 18  1  0  0  0  0 
 16 14  2  0  0  0  0 
 17 14  1  0  0  0  0 
 18 13  1  0  0  0  0 
 19  1  1  0  0  0  0 
 20  2  1  0  0  0  0 
 21  3  1  0  0  0  0 
 26  8  1  0  0  0  0 
 27  9  1  0  0  0  0 
 28 17  1  0  0  0  0 
M  END 
>  <HBA> 
4 
 
>  <HBD> 
1 
 
>  <TPSA> 
62.12 
 
>  <cid> 
37616 
 
>  <dipole> 
5.79 
 
>  <excitation_energy_1> 
4.415 
 
>  <excitation_energy_2> 
4.94 
 
>  <excitation_energy_3> 
4.968 
 
>  <excitation_energy_4> 
5.051 
 
>  <homo_energy> 
-6.403 
 
>  <homo_lumo_gap> 
5.004 
 
>  <logP> 
3.242 
 
>  <lumo_energy> 
-1.399 
 
>  <melting_point> 
140.0 
 
>  <molecular_refractivity> 
67.06 
 
>  <oscillator_strength_1> 
0.0409 
 
>  <oscillator_strength_2> 
0.0231 
 
>  <oscillator_strength_3> 
0.0023 
 
>  <oscillator_strength_4> 
0.073 
 
>  <open_babel_can_smiles> 
N#Cc1ccc(cc1)O/C(=N/c1ccccc1)/O 
 
>  <mulliken_charges> 
28 
1   -0.128291 
2   -0.136793 
3   -0.132978 
4   -0.1427 
5   -0.1998 
6   -0.151487 
7   -0.144177 
8   -0.129037 
9   -0.167212 
10   0.234663 
11   0.135054 
12   0.220152 
13   0.364049 
14   0.665123 
15   -0.4769 
16   -0.502996 
17   -0.575081 
18   -0.509228 
19   0.134513 
20   0.13782 
21   0.138014 
22   0.136005 
23   0.145832 
24   0.164636 
25   0.164957 
26   0.166267 
27   0.16083 
28   0.428764 
 
>  <lowdin_charges> 
28 
1   -0.166497 
2   -0.143553 
3   -0.14977 
4   -0.17003 
5   -0.20539 
6   -0.124585 
7   -0.126899 
8   -0.159065 
9   -0.162715 
10   -0.014046 
11   -0.025172 
12   0.04017 
13   0.124605 
14   0.208146 
15   -0.118975 
16   -0.228115 
17   -0.344159 
18   -0.130159 
19   0.161748 
20   0.160036 
21   0.162638 
22   0.165196 
23   0.161164 
24   0.176011 
25   0.178584 
26   0.182251 
27   0.177083 
28   0.3715 
 
$$$$ 
 
