PCCDB-ID:  50401 
public computational chemistry database (PCCDB) project, http://pccdb.org 
 
 29 28  0  0  0  0  0  0  0  0999 V2000 
   -0.3148   -0.0094   -1.0147 C   0  0  0  0  0  0  0  0  0  0  0  0 
    3.3198   -1.4442   -3.3997 C   0  0  0  0  0  0  0  0  0  0  0  0 
    1.0647    0.6569   -0.9475 C   0  0  0  0  0  0  0  0  0  0  0  0 
    2.2115   -0.4992   -2.9269 C   0  0  0  0  0  0  0  0  0  0  0  0 
    3.9799    0.2067    0.1822 C   0  0  0  0  0  0  0  0  0  0  0  0 
    4.9237   -0.9981    0.1932 C   0  0  0  0  0  0  0  0  0  0  0  0 
    2.2279   -0.2311   -1.4196 C   0  0  0  0  0  0  0  0  0  0  0  0 
    4.7563   -1.9200    2.3708 C   0  0  0  0  0  0  0  0  0  0  0  0 
    3.6109   -2.4079    2.0983 N   0  0  0  0  0  0  0  0  0  0  0  0 
    5.4766   -1.9994    3.5209 O   0  0  0  0  0  0  0  0  0  0  0  0 
    3.4784    0.4183   -1.1273 O   0  0  0  0  0  0  0  0  0  0  0  0 
    5.4836   -1.2050    1.5052 O   0  0  0  0  0  0  0  0  0  0  0  0 
   -1.0851    0.6523   -0.6034 H   0  0  0  0  0  0  0  0  0  0  0  0 
   -0.3342   -0.9406   -0.4349 H   0  0  0  0  0  0  0  0  0  0  0  0 
   -0.6067   -0.2516   -2.0424 H   0  0  0  0  0  0  0  0  0  0  0  0 
    3.2653   -1.6029   -4.4825 H   0  0  0  0  0  0  0  0  0  0  0  0 
    3.2376   -2.4258   -2.9158 H   0  0  0  0  0  0  0  0  0  0  0  0 
    4.3056   -1.0326   -3.1649 H   0  0  0  0  0  0  0  0  0  0  0  0 
    1.2628    0.9556    0.0900 H   0  0  0  0  0  0  0  0  0  0  0  0 
    1.0727    1.5813   -1.5403 H   0  0  0  0  0  0  0  0  0  0  0  0 
    1.2329   -0.9137   -3.1990 H   0  0  0  0  0  0  0  0  0  0  0  0 
    2.2992    0.4665   -3.4432 H   0  0  0  0  0  0  0  0  0  0  0  0 
    4.5302    1.1084    0.4734 H   0  0  0  0  0  0  0  0  0  0  0  0 
    3.1734    0.0482    0.9083 H   0  0  0  0  0  0  0  0  0  0  0  0 
    5.7833   -0.8129   -0.4545 H   0  0  0  0  0  0  0  0  0  0  0  0 
    4.4049   -1.9030   -0.1302 H   0  0  0  0  0  0  0  0  0  0  0  0 
    2.1859   -1.1924   -0.8814 H   0  0  0  0  0  0  0  0  0  0  0  0 
    3.2173   -2.9396    2.8735 H   0  0  0  0  0  0  0  0  0  0  0  0 
    4.9627   -2.5056    4.1685 H   0  0  0  0  0  0  0  0  0  0  0  0 
  1  3  1  0  0  0  0 
  1 13  1  0  0  0  0 
  1 14  1  0  0  0  0 
  2 18  1  0  0  0  0 
  2  4  1  0  0  0  0 
  2 17  1  0  0  0  0 
  3 19  1  0  0  0  0 
  4  7  1  0  0  0  0 
  5  6  1  0  0  0  0 
  5 23  1  0  0  0  0 
  5 24  1  0  0  0  0 
  6 12  1  0  0  0  0 
  7 11  1  0  0  0  0 
  7  3  1  0  0  0  0 
  7 27  1  0  0  0  0 
  8 10  1  0  0  0  0 
  9  8  2  0  0  0  0 
  9 28  1  0  0  0  0 
 10 29  1  0  0  0  0 
 11  5  1  0  0  0  0 
 12  8  1  0  0  0  0 
 15  1  1  0  0  0  0 
 16  2  1  0  0  0  0 
 20  3  1  0  0  0  0 
 21  4  1  0  0  0  0 
 22  4  1  0  0  0  0 
 25  6  1  0  0  0  0 
 26  6  1  0  0  0  0 
M  END 
>  <HBA> 
4 
 
>  <HBD> 
1 
 
>  <TPSA> 
61.55 
 
>  <cid> 
50401 
 
>  <dipole> 
2.61 
 
>  <excitation_energy_1> 
5.666 
 
>  <excitation_energy_2> 
6.094 
 
>  <excitation_energy_3> 
6.47 
 
>  <excitation_energy_4> 
6.482 
 
>  <homo_energy> 
-6.582 
 
>  <homo_lumo_gap> 
7.739 
 
>  <logP> 
1.987 
 
>  <lumo_energy> 
1.156 
 
>  <melting_point> 
40.18 
 
>  <molecular_refractivity> 
46.04 
 
>  <oscillator_strength_1> 
0.0008 
 
>  <oscillator_strength_2> 
0.0039 
 
>  <oscillator_strength_3> 
0.0038 
 
>  <oscillator_strength_4> 
0.0496 
 
>  <open_babel_can_smiles> 
CCC(OCCOC(=N)O)CC 
 
>  <mulliken_charges> 
29 
1   -0.45595 
2   -0.44978 
3   -0.260797 
4   -0.26226 
5   -0.04858 
6   -0.052099 
7   0.144694 
8   0.646023 
9   -0.632321 
10   -0.566317 
11   -0.49518 
12   -0.446971 
13   0.145909 
14   0.146571 
15   0.147783 
16   0.140013 
17   0.137917 
18   0.159918 
19   0.136508 
20   0.137929 
21   0.134628 
22   0.140643 
23   0.148157 
24   0.15222 
25   0.161624 
26   0.177505 
27   0.126437 
28   0.277252 
29   0.408522 
 
>  <lowdin_charges> 
29 
1   -0.448361 
2   -0.444331 
3   -0.284803 
4   -0.27922 
5   -0.1469 
6   -0.141527 
7   0.001931 
8   0.188745 
9   -0.478591 
10   -0.362793 
11   -0.274089 
12   -0.17541 
13   0.153686 
14   0.1486 
15   0.146839 
16   0.147368 
17   0.144063 
18   0.154106 
19   0.144415 
20   0.145278 
21   0.145446 
22   0.146813 
23   0.148888 
24   0.146136 
25   0.158355 
26   0.162428 
27   0.13155 
28   0.25819 
29   0.363188 
 
$$$$ 
 
