PCCDB-ID:  56333 
public computational chemistry database (PCCDB) project, http://pccdb.org 
 
 31 31  0  0  1  0  0  0  0  0999 V2000 
    0.6644   -0.3354   -0.0667 C   0  0  0  0  0  0  0  0  0  0  0  0 
    6.7043   -0.7429   -2.3051 C   0  0  0  0  0  0  0  0  0  0  0  0 
    6.5419    2.5291    0.4342 C   0  0  0  0  0  0  0  0  0  0  0  0 
    2.4677    1.4349    0.1674 C   0  0  0  0  0  0  0  0  0  0  0  0 
    3.8076    1.8211    0.2503 C   0  0  0  0  0  0  0  0  0  0  0  0 
    3.1477   -0.8417   -0.0972 C   0  0  0  0  0  0  0  0  0  0  0  0 
    2.1110    0.0979   -0.0086 C   0  0  0  0  0  0  0  0  0  0  0  0 
    5.9678   -1.9033   -1.6170 C   0  0  2  0  0  0  0  0  0  0  0  0 
    4.4991   -0.4989   -0.0270 C   0  0  0  0  0  0  0  0  0  0  0  0 
    4.8183    0.8641    0.1479 C   0  0  0  0  0  0  0  0  0  0  0  0 
    5.5422   -1.6052   -0.1531 C   0  0  2  0  0  0  0  0  0  0  0  0 
    6.7386   -3.1537   -1.5685 N   0  0  0  0  0  0  0  0  0  0  0  0 
    6.6813   -1.4278    0.6873 O   0  0  0  0  0  0  0  0  0  0  0  0 
    6.1617    1.1799    0.2040 O   0  0  0  0  0  0  0  0  0  0  0  0 
    0.0020    0.5112   -0.2748 H   0  0  0  0  0  0  0  0  0  0  0  0 
    0.3396   -0.7799    0.8836 H   0  0  0  0  0  0  0  0  0  0  0  0 
    0.5012   -1.0887   -0.8459 H   0  0  0  0  0  0  0  0  0  0  0  0 
    6.0764    0.1504   -2.3946 H   0  0  0  0  0  0  0  0  0  0  0  0 
    7.0068   -1.0400   -3.3168 H   0  0  0  0  0  0  0  0  0  0  0  0 
    7.6102   -0.4721   -1.7513 H   0  0  0  0  0  0  0  0  0  0  0  0 
    7.6329    2.5322    0.4593 H   0  0  0  0  0  0  0  0  0  0  0  0 
    6.1534    2.8980    1.3918 H   0  0  0  0  0  0  0  0  0  0  0  0 
    6.1959    3.1839   -0.3752 H   0  0  0  0  0  0  0  0  0  0  0  0 
    1.6946    2.1955    0.2470 H   0  0  0  0  0  0  0  0  0  0  0  0 
    4.0487    2.8687    0.3885 H   0  0  0  0  0  0  0  0  0  0  0  0 
    2.8952   -1.8934   -0.2227 H   0  0  0  0  0  0  0  0  0  0  0  0 
    5.0444   -2.1047   -2.1785 H   0  0  0  0  0  0  0  0  0  0  0  0 
    5.0802   -2.5326    0.2018 H   0  0  0  0  0  0  0  0  0  0  0  0 
    7.4908   -3.0208   -0.8916 H   0  0  0  0  0  0  0  0  0  0  0  0 
    7.1842   -3.3194   -2.4701 H   0  0  0  0  0  0  0  0  0  0  0  0 
    6.9408   -0.4941    0.6115 H   0  0  0  0  0  0  0  0  0  0  0  0 
  1  7  1  0  0  0  0 
  1 16  1  0  0  0  0 
  2 20  1  0  0  0  0 
  2  8  1  0  0  0  0 
  3 21  1  0  0  0  0 
  3 22  1  0  0  0  0 
  4 24  1  0  0  0  0 
  4  5  1  0  0  0  0 
  5 25  1  0  0  0  0 
  6  9  2  0  0  0  0 
  6  7  1  0  0  0  0 
  7  4  2  0  0  0  0 
  8 27  1  6  0  0  0 
  8 12  1  0  0  0  0 
  8 11  1  0  0  0  0 
  9 10  1  0  0  0  0 
 10 14  1  0  0  0  0 
 10  5  2  0  0  0  0 
 11  9  1  0  0  0  0 
 11 28  1  1  0  0  0 
 11 13  1  0  0  0  0 
 12 29  1  0  0  0  0 
 14  3  1  0  0  0  0 
 15  1  1  0  0  0  0 
 17  1  1  0  0  0  0 
 18  2  1  0  0  0  0 
 19  2  1  0  0  0  0 
 23  3  1  0  0  0  0 
 26  6  1  0  0  0  0 
 30 12  1  0  0  0  0 
 31 13  1  0  0  0  0 
M  END 
>  <HBA> 
3 
 
>  <HBD> 
2 
 
>  <TPSA> 
55.48 
 
>  <cid> 
56333 
 
>  <dipole> 
3.93 
 
>  <excitation_energy_1> 
4.909 
 
>  <excitation_energy_2> 
5.19 
 
>  <excitation_energy_3> 
5.42 
 
>  <excitation_energy_4> 
5.549 
 
>  <homo_energy> 
-5.924 
 
>  <homo_lumo_gap> 
5.821 
 
>  <logP> 
2.084 
 
>  <lumo_energy> 
-0.103 
 
>  <melting_point> 
89.64 
 
>  <molecular_refractivity> 
56.35 
 
>  <oscillator_strength_1> 
0.0394 
 
>  <oscillator_strength_2> 
0.0009 
 
>  <oscillator_strength_3> 
0.0025 
 
>  <oscillator_strength_4> 
0.0268 
 
>  <open_babel_can_smiles> 
COc1ccc(cc1[C@@H]([C@H](N)C)O)C 
 
>  <mulliken_charges> 
31 
1   -0.530723 
2   -0.458437 
3   -0.215988 
4   -0.196722 
5   -0.186256 
6   -0.256884 
7   0.191177 
8   0.038204 
9   0.118458 
10   0.324631 
11   0.054672 
12   -0.723057 
13   -0.662513 
14   -0.552589 
15   0.153423 
16   0.165397 
17   0.159293 
18   0.145101 
19   0.13191 
20   0.135063 
21   0.172409 
22   0.160316 
23   0.158842 
24   0.123138 
25   0.131954 
26   0.128377 
27   0.123554 
28   0.15367 
29   0.307576 
30   0.285759 
31   0.420244 
 
>  <lowdin_charges> 
31 
1   -0.442617 
2   -0.466507 
3   -0.275814 
4   -0.16233 
5   -0.205683 
6   -0.159796 
7   -0.011687 
8   -0.079123 
9   -0.036735 
10   0.089908 
11   -0.003522 
12   -0.557505 
13   -0.473719 
14   -0.215156 
15   0.156879 
16   0.161309 
17   0.159722 
18   0.151735 
19   0.14379 
20   0.144549 
21   0.16211 
22   0.150045 
23   0.150381 
24   0.156536 
25   0.161417 
26   0.156101 
27   0.138079 
28   0.158352 
29   0.258932 
30   0.248575 
31   0.341774 
 
$$$$ 
 
