PCCDB-ID:  58366 
public computational chemistry database (PCCDB) project, http://pccdb.org 
 
 44 44  0  0  1  0  0  0  0  0999 V2000 
    1.0848   -1.2529    0.9988 C   0  0  0  0  0  0  0  0  0  0  0  0 
    9.7617    2.2888   -0.6394 C   0  0  0  0  0  0  0  0  0  0  0  0 
    2.3151   -0.3399    1.0147 C   0  0  0  0  0  0  0  0  0  0  0  0 
    3.6323   -1.0946    0.7934 C   0  0  0  0  0  0  0  0  0  0  0  0 
    4.8703   -0.1889    0.8153 C   0  0  0  0  0  0  0  0  0  0  0  0 
    6.1855   -0.9429    0.5807 C   0  0  0  0  0  0  0  0  0  0  0  0 
   11.4652    1.1984    4.3107 C   0  0  0  0  0  0  0  0  0  0  0  0 
   10.3461    1.7972    3.7308 C   0  0  0  0  0  0  0  0  0  0  0  0 
   12.1330    0.1888    3.6178 C   0  0  0  0  0  0  0  0  0  0  0  0 
    7.4259   -0.0369    0.6173 C   0  0  0  0  0  0  0  0  0  0  0  0 
    9.8980    1.3901    2.4729 C   0  0  0  0  0  0  0  0  0  0  0  0 
   11.6799   -0.2150    2.3608 C   0  0  0  0  0  0  0  0  0  0  0  0 
    8.7193   -0.8281    0.3701 C   0  0  0  0  0  0  0  0  0  0  0  0 
   10.3578    0.8777   -0.7806 C   0  0  2  0  0  0  0  0  0  0  0  0 
   10.5534    0.3706    1.7594 C   0  0  0  0  0  0  0  0  0  0  0  0 
   10.1088   -0.1280    0.3869 C   0  0  1  0  0  0  0  0  0  0  0  0 
   11.8140    0.9102   -1.0272 N   0  0  0  0  0  0  0  0  0  0  0  0 
    0.1613   -0.6842    1.1571 H   0  0  0  0  0  0  0  0  0  0  0  0 
    1.1465   -2.0142    1.7863 H   0  0  0  0  0  0  0  0  0  0  0  0 
    0.9928   -1.7774    0.0397 H   0  0  0  0  0  0  0  0  0  0  0  0 
    8.6788    2.2848   -0.4787 H   0  0  0  0  0  0  0  0  0  0  0  0 
    9.9530    2.8589   -1.5575 H   0  0  0  0  0  0  0  0  0  0  0  0 
   10.2264    2.8328    0.1901 H   0  0  0  0  0  0  0  0  0  0  0  0 
    2.3614    0.1955    1.9738 H   0  0  0  0  0  0  0  0  0  0  0  0 
    2.2070    0.4337    0.2410 H   0  0  0  0  0  0  0  0  0  0  0  0 
    3.5873   -1.6265   -0.1688 H   0  0  0  0  0  0  0  0  0  0  0  0 
    3.7380   -1.8728    1.5641 H   0  0  0  0  0  0  0  0  0  0  0  0 
    4.9194    0.3351    1.7815 H   0  0  0  0  0  0  0  0  0  0  0  0 
    4.7592    0.5951    0.0512 H   0  0  0  0  0  0  0  0  0  0  0  0 
    6.1399   -1.4585   -0.3902 H   0  0  0  0  0  0  0  0  0  0  0  0 
    6.2922   -1.7333    1.3383 H   0  0  0  0  0  0  0  0  0  0  0  0 
   11.8123    1.5158    5.2905 H   0  0  0  0  0  0  0  0  0  0  0  0 
    9.8162    2.5866    4.2581 H   0  0  0  0  0  0  0  0  0  0  0  0 
   13.0070   -0.2881    4.0543 H   0  0  0  0  0  0  0  0  0  0  0  0 
    7.4658    0.4643    1.5921 H   0  0  0  0  0  0  0  0  0  0  0  0 
    7.3055    0.7511   -0.1373 H   0  0  0  0  0  0  0  0  0  0  0  0 
    9.0297    1.8792    2.0462 H   0  0  0  0  0  0  0  0  0  0  0  0 
   12.2090   -1.0038    1.8310 H   0  0  0  0  0  0  0  0  0  0  0  0 
    8.6306   -1.3264   -0.6067 H   0  0  0  0  0  0  0  0  0  0  0  0 
    8.7661   -1.6368    1.1131 H   0  0  0  0  0  0  0  0  0  0  0  0 
    9.9115    0.4116   -1.6707 H   0  0  0  0  0  0  0  0  0  0  0  0 
   10.8026   -0.9399    0.1384 H   0  0  0  0  0  0  0  0  0  0  0  0 
   12.2726    1.3305   -0.2170 H   0  0  0  0  0  0  0  0  0  0  0  0 
   12.0074    1.5391   -1.8073 H   0  0  0  0  0  0  0  0  0  0  0  0 
  1  3  1  0  0  0  0 
  1 18  1  0  0  0  0 
  1 19  1  0  0  0  0 
  2 21  1  0  0  0  0 
  2 23  1  0  0  0  0 
  3 24  1  0  0  0  0 
  4  5  1  0  0  0  0 
  4  3  1  0  0  0  0 
  4 27  1  0  0  0  0 
  5 28  1  0  0  0  0 
  6 10  1  0  0  0  0 
  6  5  1  0  0  0  0 
  6 31  1  0  0  0  0 
  7 32  1  0  0  0  0 
  8 33  1  0  0  0  0 
  8  7  1  0  0  0  0 
  9 34  1  0  0  0  0 
  9  7  2  0  0  0  0 
 10 35  1  0  0  0  0 
 11  8  2  0  0  0  0 
 12  9  1  0  0  0  0 
 13 16  1  0  0  0  0 
 13 10  1  0  0  0  0 
 13 40  1  0  0  0  0 
 14 41  1  6  0  0  0 
 14  2  1  0  0  0  0 
 14 16  1  0  0  0  0 
 15 12  2  0  0  0  0 
 15 11  1  0  0  0  0 
 16 42  1  6  0  0  0 
 16 15  1  0  0  0  0 
 17 14  1  0  0  0  0 
 17 43  1  0  0  0  0 
 20  1  1  0  0  0  0 
 22  2  1  0  0  0  0 
 25  3  1  0  0  0  0 
 26  4  1  0  0  0  0 
 29  5  1  0  0  0  0 
 30  6  1  0  0  0  0 
 36 10  1  0  0  0  0 
 37 11  1  0  0  0  0 
 38 12  1  0  0  0  0 
 39 13  1  0  0  0  0 
 44 17  1  0  0  0  0 
M  END 
>  <HBA> 
1 
 
>  <HBD> 
1 
 
>  <TPSA> 
26.02 
 
>  <cid> 
58366 
 
>  <dipole> 
1.18 
 
>  <excitation_energy_1> 
5.302 
 
>  <excitation_energy_2> 
5.515 
 
>  <excitation_energy_3> 
5.616 
 
>  <excitation_energy_4> 
5.727 
 
>  <homo_energy> 
-6.202 
 
>  <homo_lumo_gap> 
6.24 
 
>  <logP> 
5.178 
 
>  <lumo_energy> 
0.038 
 
>  <melting_point> 
55.42 
 
>  <molecular_refractivity> 
77.38 
 
>  <oscillator_strength_1> 
0.0008 
 
>  <oscillator_strength_2> 
0.008 
 
>  <oscillator_strength_3> 
0.0059 
 
>  <oscillator_strength_4> 
0.0233 
 
>  <open_babel_can_smiles> 
CCCCCCC[C@H](c1ccccc1)[C@H](N)C 
 
>  <mulliken_charges> 
44 
1   -0.441247 
2   -0.463005 
3   -0.246403 
4   -0.245448 
5   -0.253347 
6   -0.25495 
7   -0.131673 
8   -0.1329 
9   -0.124688 
10   -0.263954 
11   -0.183954 
12   -0.194325 
13   -0.265555 
14   0.026959 
15   0.146657 
16   -0.170096 
17   -0.718102 
18   0.140975 
19   0.141189 
20   0.140912 
21   0.146117 
22   0.133177 
23   0.148514 
24   0.12964 
25   0.129199 
26   0.126143 
27   0.12687 
28   0.126836 
29   0.125251 
30   0.126895 
31   0.129489 
32   0.127255 
33   0.126978 
34   0.128165 
35   0.135178 
36   0.132236 
37   0.133667 
38   0.133666 
39   0.129291 
40   0.134946 
41   0.127135 
42   0.150322 
43   0.296112 
44   0.289877 
 
>  <lowdin_charges> 
44 
1   -0.444933 
2   -0.46879 
3   -0.272548 
4   -0.27483 
5   -0.274751 
6   -0.273822 
7   -0.160707 
8   -0.159887 
9   -0.158122 
10   -0.284482 
11   -0.172302 
12   -0.170401 
13   -0.272749 
14   -0.062265 
15   -0.006136 
16   -0.135171 
17   -0.557222 
18   0.148934 
19   0.146666 
20   0.145871 
21   0.146897 
22   0.145511 
23   0.15234 
24   0.138291 
25   0.138815 
26   0.136875 
27   0.138008 
28   0.137118 
29   0.137107 
30   0.136822 
31   0.139108 
32   0.156056 
33   0.157141 
34   0.157491 
35   0.142747 
36   0.138768 
37   0.159776 
38   0.159346 
39   0.140439 
40   0.145455 
41   0.138853 
42   0.160241 
43   0.253656 
44   0.250789 
 
$$$$ 
 
