PCCDB-ID:  24057 
public computational chemistry database (PCCDB) project, http://pccdb.org 
 
 17 18  0  0  0  0  0  0  0  0999 V2000 
    2.2361   -0.6416    0.0036 C   0  0  0  0  0  0  0  0  0  0  0  0 
    2.1489    0.7554   -0.0218 C   0  0  0  0  0  0  0  0  0  0  0  0 
    1.0883   -1.4364    0.0098 C   0  0  0  0  0  0  0  0  0  0  0  0 
    0.9032    1.3842   -0.0415 C   0  0  0  0  0  0  0  0  0  0  0  0 
   -0.1534   -0.8024   -0.0108 C   0  0  0  0  0  0  0  0  0  0  0  0 
   -0.2478    0.5934   -0.0363 C   0  0  0  0  0  0  0  0  0  0  0  0 
   -2.5601    0.0990   -0.0403 C   0  0  0  0  0  0  0  0  0  0  0  0 
   -3.8276    0.2118   -0.0467 N   0  0  0  0  0  0  0  0  0  0  0  0 
   -1.5562    1.0602   -0.0536 N   0  0  0  0  0  0  0  0  0  0  0  0 
    0.7110    2.7435   -0.0662 O   0  0  0  0  0  0  0  0  0  0  0  0 
   -1.7718   -1.5250   -0.0072 S   0  0  0  0  0  0  0  0  0  0  0  0 
    3.2148   -1.1114    0.0184 H   0  0  0  0  0  0  0  0  0  0  0  0 
    3.0532    1.3603   -0.0259 H   0  0  0  0  0  0  0  0  0  0  0  0 
    1.1610   -2.5188    0.0297 H   0  0  0  0  0  0  0  0  0  0  0  0 
   -4.1231    1.1908   -0.0656 H   0  0  0  0  0  0  0  0  0  0  0  0 
   -1.7676    2.0481   -0.0706 H   0  0  0  0  0  0  0  0  0  0  0  0 
    1.5736    3.1859   -0.0666 H   0  0  0  0  0  0  0  0  0  0  0  0 
  1  3  2  0  0  0  0 
  1 12  1  0  0  0  0 
  2  1  1  0  0  0  0 
  3 14  1  0  0  0  0 
  4  6  1  0  0  0  0 
  4  2  2  0  0  0  0 
  5 11  1  0  0  0  0 
  5  3  1  0  0  0  0 
  6  5  2  0  0  0  0 
  7 11  1  0  0  0  0 
  8  7  2  0  0  0  0 
  9  7  1  0  0  0  0 
  9  6  1  0  0  0  0 
 10  4  1  0  0  0  0 
 13  2  1  0  0  0  0 
 15  8  1  0  0  0  0 
 16  9  1  0  0  0  0 
 17 10  1  0  0  0  0 
M  END 
>  <HBA> 
4 
 
>  <HBD> 
2 
 
>  <TPSA> 
87.38 
 
>  <cid> 
24057 
 
>  <dipole> 
5.16 
 
>  <excitation_energy_1> 
4.482 
 
>  <excitation_energy_2> 
4.538 
 
>  <excitation_energy_3> 
4.6 
 
>  <excitation_energy_4> 
4.806 
 
>  <homo_energy> 
-5.461 
 
>  <homo_lumo_gap> 
5.342 
 
>  <logP> 
2.165 
 
>  <lumo_energy> 
-0.12 
 
>  <melting_point> 
153.52 
 
>  <molecular_refractivity> 
46.05 
 
>  <oscillator_strength_1> 
0.0012 
 
>  <oscillator_strength_2> 
0.0289 
 
>  <oscillator_strength_3> 
0.0001 
 
>  <oscillator_strength_4> 
0.0562 
 
>  <open_babel_can_smiles> 
N=c1sc2c([nH]1)c(O)ccc2 
 
>  <mulliken_charges> 
17 
1   -0.124627 
2   -0.203544 
3   -0.192236 
4   0.31349 
5   -0.153404 
6   0.356886 
7   0.325963 
8   -0.636837 
9   -0.693597 
10   -0.66321 
11   0.232554 
12   0.134529 
13   0.123102 
14   0.143213 
15   0.278761 
16   0.343104 
17   0.415853 
 
>  <lowdin_charges> 
17 
1   -0.156553 
2   -0.212895 
3   -0.174775 
4   0.079934 
5   -0.140527 
6   0.017381 
7   -0.009482 
8   -0.43017 
9   -0.237257 
10   -0.392455 
11   0.253073 
12   0.162492 
13   0.157743 
14   0.165554 
15   0.254599 
16   0.299366 
17   0.363971 
 
$$$$ 
 
