PCCDB-ID:  69851 
public computational chemistry database (PCCDB) project, http://pccdb.org 
 
 16 16  0  0  0  0  0  0  0  0999 V2000 
    1.0239   -0.0786    0.0190 C   0  0  0  0  0  0  0  0  0  0  0  0 
    5.2416   -0.0801   -0.3578 C   0  0  0  0  0  0  0  0  0  0  0  0 
    4.5743   -1.2599   -0.2367 C   0  0  0  0  0  0  0  0  0  0  0  0 
    5.1926    2.4154   -0.4862 C   0  0  0  0  0  0  0  0  0  0  0  0 
    3.1536    1.1209   -0.2340 C   0  0  0  0  0  0  0  0  0  0  0  0 
    4.5250    1.1616   -0.3593 C   0  0  0  0  0  0  0  0  0  0  0  0 
    3.1315   -1.3236   -0.1049 C   0  0  0  0  0  0  0  0  0  0  0  0 
    5.7468    3.4340   -0.5908 N   0  0  0  0  0  0  0  0  0  0  0  0 
    2.4833   -0.0482   -0.1124 N   0  0  0  0  0  0  0  0  0  0  0  0 
    2.4538   -2.3379    0.0071 O   0  0  0  0  0  0  0  0  0  0  0  0 
    0.6420    0.9431    0.0021 H   0  0  0  0  0  0  0  0  0  0  0  0 
    0.7503   -0.5685    0.9562 H   0  0  0  0  0  0  0  0  0  0  0  0 
    0.5934   -0.6564   -0.8020 H   0  0  0  0  0  0  0  0  0  0  0  0 
    6.3228   -0.0611   -0.4557 H   0  0  0  0  0  0  0  0  0  0  0  0 
    5.0902   -2.2131   -0.2339 H   0  0  0  0  0  0  0  0  0  0  0  0 
    2.5561    2.0257   -0.2297 H   0  0  0  0  0  0  0  0  0  0  0  0 
  1 12  1  0  0  0  0 
  2  3  2  0  0  0  0 
  3 15  1  0  0  0  0 
  3  7  1  0  0  0  0 
  4  6  1  0  0  0  0 
  5 16  1  0  0  0  0 
  5  9  1  0  0  0  0 
  6  2  1  0  0  0  0 
  6  5  2  0  0  0  0 
  7 10  2  0  0  0  0 
  8  4  3  0  0  0  0 
  9  7  1  0  0  0  0 
  9  1  1  0  0  0  0 
 11  1  1  0  0  0  0 
 13  1  1  0  0  0  0 
 14  2  1  0  0  0  0 
M  END 
>  <HBA> 
3 
 
>  <HBD> 
0 
 
>  <TPSA> 
45.79 
 
>  <cid> 
69851 
 
>  <dipole> 
2.4 
 
>  <excitation_energy_1> 
4.254 
 
>  <excitation_energy_2> 
4.624 
 
>  <excitation_energy_3> 
5.12 
 
>  <excitation_energy_4> 
5.122 
 
>  <homo_energy> 
-6.463 
 
>  <homo_lumo_gap> 
4.762 
 
>  <logP> 
0.257 
 
>  <lumo_energy> 
-1.701 
 
>  <melting_point> 
79.66 
 
>  <molecular_refractivity> 
36.68 
 
>  <oscillator_strength_1> 
0.0778 
 
>  <oscillator_strength_2> 
0.0 
 
>  <oscillator_strength_3> 
0.2875 
 
>  <oscillator_strength_4> 
0.0002 
 
>  <open_babel_can_smiles> 
N#Cc1ccc(=O)n(c1)C 
 
>  <mulliken_charges> 
16 
1   -0.317776 
2   -0.078749 
3   -0.224316 
4   0.223308 
5   0.093334 
6   0.061862 
7   0.604005 
8   -0.476965 
9   -0.461891 
10   -0.521418 
11   0.165304 
12   0.200714 
13   0.20064 
14   0.172072 
15   0.166791 
16   0.193085 
 
>  <lowdin_charges> 
16 
1   -0.341836 
2   -0.102753 
3   -0.1932 
4   -0.020185 
5   -0.051234 
6   -0.074636 
7   0.153748 
8   -0.121578 
9   -0.019008 
10   -0.298907 
11   0.162108 
12   0.17942 
13   0.180264 
14   0.1789 
15   0.183847 
16   0.18505 
 
$$$$ 
 
