PCCDB-ID:  8110 
public computational chemistry database (PCCDB) project, http://pccdb.org 
 
 16 15  0  0  0  0  0  0  0  0999 V2000 
    1.1635    0.3952    0.0450 C   0  0  0  0  0  0  0  0  0  0  0  0 
    2.6657    0.1313   -0.0979 C   0  0  0  0  0  0  0  0  0  0  0  0 
    3.0374   -1.3374    0.1347 C   0  0  0  0  0  0  0  0  0  0  0  0 
    4.5350   -1.6238    0.0084 C   0  0  0  0  0  0  0  0  0  0  0  0 
    6.4383   -0.7012    1.3291 C   0  0  0  0  0  0  0  0  0  0  0  0 
    5.2913   -0.9080    1.0198 N   0  0  0  0  0  0  0  0  0  0  0  0 
    7.5103   -0.4210    1.7396 O   0  0  0  0  0  0  0  0  0  0  0  0 
    0.9285    1.4521   -0.1223 H   0  0  0  0  0  0  0  0  0  0  0  0 
    0.8088    0.1303    1.0485 H   0  0  0  0  0  0  0  0  0  0  0  0 
    0.5840   -0.1933   -0.6772 H   0  0  0  0  0  0  0  0  0  0  0  0 
    3.2211    0.7557    0.6130 H   0  0  0  0  0  0  0  0  0  0  0  0 
    2.9994    0.4340   -1.1010 H   0  0  0  0  0  0  0  0  0  0  0  0 
    2.5152   -1.9744   -0.5926 H   0  0  0  0  0  0  0  0  0  0  0  0 
    2.7005   -1.6538    1.1308 H   0  0  0  0  0  0  0  0  0  0  0  0 
    4.8908   -1.3283   -0.9879 H   0  0  0  0  0  0  0  0  0  0  0  0 
    4.7204   -2.6996    0.1184 H   0  0  0  0  0  0  0  0  0  0  0  0 
  1  9  1  0  0  0  0 
  2  1  1  0  0  0  0 
  2  3  1  0  0  0  0 
  2 11  1  0  0  0  0 
  3 14  1  0  0  0  0 
  4 16  1  0  0  0  0 
  4  3  1  0  0  0  0 
  4  6  1  0  0  0  0 
  5  7  2  0  0  0  0 
  6  5  2  0  0  0  0 
  8  1  1  0  0  0  0 
 10  1  1  0  0  0  0 
 12  2  1  0  0  0  0 
 13  3  1  0  0  0  0 
 15  4  1  0  0  0  0 
M  END 
>  <HBA> 
2 
 
>  <HBD> 
0 
 
>  <TPSA> 
29.43 
 
>  <cid> 
8110 
 
>  <dipole> 
2.9 
 
>  <excitation_energy_1> 
5.983 
 
>  <excitation_energy_2> 
6.728 
 
>  <excitation_energy_3> 
7.093 
 
>  <excitation_energy_4> 
7.419 
 
>  <homo_energy> 
-7.448 
 
>  <homo_lumo_gap> 
8.057 
 
>  <logP> 
1.122 
 
>  <lumo_energy> 
0.61 
 
>  <melting_point> 
24.88 
 
>  <molecular_refractivity> 
28.41 
 
>  <oscillator_strength_1> 
0.0001 
 
>  <oscillator_strength_2> 
0.0202 
 
>  <oscillator_strength_3> 
0.0008 
 
>  <oscillator_strength_4> 
0.0153 
 
>  <open_babel_can_smiles> 
CCCCN=C=O 
 
>  <mulliken_charges> 
16 
1   -0.443182 
2   -0.2505 
3   -0.256557 
4   -0.139146 
5   0.603685 
6   -0.424955 
7   -0.414549 
8   0.146938 
9   0.145457 
10   0.141418 
11   0.155272 
12   0.129565 
13   0.135869 
14   0.147684 
15   0.160127 
16   0.162874 
 
>  <lowdin_charges> 
16 
1   -0.443143 
2   -0.275543 
3   -0.279184 
4   -0.165979 
5   0.170596 
6   -0.179534 
7   -0.165317 
8   0.150903 
9   0.147949 
10   0.147397 
11   0.15209 
12   0.138452 
13   0.147594 
14   0.148954 
15   0.151057 
16   0.153706 
 
$$$$ 
 
