PCCDB-ID:  26592 
public computational chemistry database (PCCDB) project, http://pccdb.org 
 
 27 29  0  0  0  0  0  0  0  0999 V2000 
   -3.7004   -0.6196   -0.0103 C   0  0  0  0  0  0  0  0  0  0  0  0 
   -3.6332    0.7804   -0.0453 C   0  0  0  0  0  0  0  0  0  0  0  0 
   -2.5272   -1.3583    0.0247 C   0  0  0  0  0  0  0  0  0  0  0  0 
   -2.4039    1.4192   -0.0471 C   0  0  0  0  0  0  0  0  0  0  0  0 
    3.6896   -0.6720    0.0511 C   0  0  0  0  0  0  0  0  0  0  0  0 
    2.5026   -1.3872    0.0677 C   0  0  0  0  0  0  0  0  0  0  0  0 
    2.4105    1.4062   -0.0096 C   0  0  0  0  0  0  0  0  0  0  0  0 
    3.6154    0.7240    0.0129 C   0  0  0  0  0  0  0  0  0  0  0  0 
   -1.2614   -0.7464    0.0266 C   0  0  0  0  0  0  0  0  0  0  0  0 
    1.2539   -0.7444    0.0460 C   0  0  0  0  0  0  0  0  0  0  0  0 
   -1.2154    0.6671   -0.0123 C   0  0  0  0  0  0  0  0  0  0  0  0 
    1.2181    0.6670    0.0064 C   0  0  0  0  0  0  0  0  0  0  0  0 
   -0.0022   -1.5349    0.0658 C   0  0  0  0  0  0  0  0  0  0  0  0 
    0.1040   -2.8180    0.1144 N   0  0  0  0  0  0  0  0  0  0  0  0 
    0.0026    1.3214   -0.0156 N   0  0  0  0  0  0  0  0  0  0  0  0 
    4.8611    1.5093   -0.0048 N   0  0  0  0  0  0  0  0  0  0  0  0 
    5.9248    0.8919    0.0085 O   0  0  0  0  0  0  0  0  0  0  0  0 
    4.7653    2.7372   -0.0319 O   0  0  0  0  0  0  0  0  0  0  0  0 
   -4.6622   -1.1228   -0.0092 H   0  0  0  0  0  0  0  0  0  0  0  0 
   -4.5444    1.3711   -0.0730 H   0  0  0  0  0  0  0  0  0  0  0  0 
   -2.5920   -2.4424    0.0525 H   0  0  0  0  0  0  0  0  0  0  0  0 
   -2.3465    2.5050   -0.0745 H   0  0  0  0  0  0  0  0  0  0  0  0 
    4.6554   -1.1599    0.0677 H   0  0  0  0  0  0  0  0  0  0  0  0 
    2.5037   -2.4708    0.0987 H   0  0  0  0  0  0  0  0  0  0  0  0 
    2.4079    2.4897   -0.0385 H   0  0  0  0  0  0  0  0  0  0  0  0 
   -0.8112   -3.2738    0.1264 H   0  0  0  0  0  0  0  0  0  0  0  0 
    0.0027    2.3312   -0.0451 H   0  0  0  0  0  0  0  0  0  0  0  0 
  1 19  1  0  0  0  0 
  1  3  2  0  0  0  0 
  2  1  1  0  0  0  0 
  3  9  1  0  0  0  0 
  3 21  1  0  0  0  0 
  4  2  2  0  0  0  0 
  4 11  1  0  0  0  0 
  5 23  1  0  0  0  0 
  5  6  2  0  0  0  0 
  6 24  1  0  0  0  0 
  7 12  1  0  0  0  0 
  7  8  2  0  0  0  0 
  8  5  1  0  0  0  0 
  9 13  1  0  0  0  0 
 10 13  1  0  0  0  0 
 10  6  1  0  0  0  0 
 11  9  2  0  0  0  0 
 12 10  2  0  0  0  0 
 13 14  2  0  0  0  0 
 14 26  1  0  0  0  0 
 15 11  1  0  0  0  0 
 15 12  1  0  0  0  0 
 16 17  2  0  0  0  0 
 16  8  1  0  0  0  0 
 18 16  2  0  0  0  0 
 20  2  1  0  0  0  0 
 22  4  1  0  0  0  0 
 25  7  1  0  0  0  0 
 27 15  1  0  0  0  0 
M  END 
>  <HBA> 
2 
 
>  <HBD> 
1 
 
>  <TPSA> 
84.73 
 
>  <cid> 
26592 
 
>  <dipole> 
6.25 
 
>  <excitation_energy_1> 
2.648 
 
>  <excitation_energy_2> 
3.686 
 
>  <excitation_energy_3> 
3.696 
 
>  <excitation_energy_4> 
3.856 
 
>  <homo_energy> 
-5.821 
 
>  <homo_lumo_gap> 
3.238 
 
>  <logP> 
3.983 
 
>  <lumo_energy> 
-2.582 
 
>  <melting_point> 
198.45 
 
>  <molecular_refractivity> 
72.48 
 
>  <oscillator_strength_1> 
0.0353 
 
>  <oscillator_strength_2> 
0.0327 
 
>  <oscillator_strength_3> 
0.0002 
 
>  <oscillator_strength_4> 
0.001 
 
>  <open_babel_can_smiles> 
O=N(=O)c1ccc2c(c1)[nH]c1c(c2=N)cccc1 
 
>  <mulliken_charges> 
27 
1   -0.13477 
2   -0.129767 
3   -0.212239 
4   -0.183754 
5   -0.158366 
6   -0.200133 
7   -0.233939 
8   0.283871 
9   0.114195 
10   0.111728 
11   0.348998 
12   0.352896 
13   0.23689 
14   -0.653583 
15   -0.848136 
16   0.377808 
17   -0.388674 
18   -0.399144 
19   0.138959 
20   0.14277 
21   0.138999 
22   0.133669 
23   0.180475 
24   0.186238 
25   0.176679 
26   0.286984 
27   0.331346 
 
>  <lowdin_charges> 
27 
1   -0.169797 
2   -0.133621 
3   -0.134065 
4   -0.185841 
5   -0.159089 
6   -0.115133 
7   -0.17517 
8   0.015843 
9   -0.059158 
10   -0.026454 
11   0.064963 
12   0.061191 
13   0.053591 
14   -0.38909 
15   -0.208634 
16   0.306278 
17   -0.240163 
18   -0.248887 
19   0.163801 
20   0.165777 
21   0.158113 
22   0.157449 
23   0.187853 
24   0.187851 
25   0.182472 
26   0.248743 
27   0.291178 
 
$$$$ 
 
