PCCDB-ID:  39144 
public computational chemistry database (PCCDB) project, http://pccdb.org 
 
 20 21  0  0  1  0  0  0  0  0999 V2000 
    0.8319   -0.3582    0.5644 C   0  0  0  0  0  0  0  0  0  0  0  0 
    4.1981   -0.2773   -4.4296 C   0  0  0  0  0  0  0  0  0  0  0  0 
    2.4816   -0.0500   -1.3051 C   0  0  0  0  0  0  0  0  0  0  0  0 
    2.6033    0.0233   -2.5074 C   0  0  0  0  0  0  0  0  0  0  0  0 
    3.3870   -0.5731    0.9952 C   0  0  0  0  0  0  0  0  0  0  0  0 
    1.9646    1.0173   -4.7379 C   0  0  0  0  0  0  0  0  0  0  0  0 
    2.2681   -0.1441    0.1264 C   0  0  2  0  0  0  0  0  0  0  0  0 
    2.8143    0.1042   -3.9399 C   0  0  1  0  0  0  0  0  0  0  0  0 
    3.0188    0.8046    0.9234 O   0  0  0  0  0  0  0  0  0  0  0  0 
    1.7219   -0.3895   -4.7527 O   0  0  0  0  0  0  0  0  0  0  0  0 
    0.4319   -1.2820    0.1334 H   0  0  0  0  0  0  0  0  0  0  0  0 
    0.2051    0.4748    0.2300 H   0  0  0  0  0  0  0  0  0  0  0  0 
    0.7802   -0.4193    1.6553 H   0  0  0  0  0  0  0  0  0  0  0  0 
    4.9576    0.3768   -3.9878 H   0  0  0  0  0  0  0  0  0  0  0  0 
    4.2447   -0.1940   -5.5192 H   0  0  0  0  0  0  0  0  0  0  0  0 
    4.4295   -1.3096   -4.1476 H   0  0  0  0  0  0  0  0  0  0  0  0 
    4.3472   -0.8292    0.5480 H   0  0  0  0  0  0  0  0  0  0  0  0 
    3.1578   -1.0737    1.9369 H   0  0  0  0  0  0  0  0  0  0  0  0 
    2.3675    1.4383   -5.6601 H   0  0  0  0  0  0  0  0  0  0  0  0 
    1.2063    1.6177   -4.2366 H   0  0  0  0  0  0  0  0  0  0  0  0 
  1 13  1  0  0  0  0 
  2 16  1  0  0  0  0 
  2 14  1  0  0  0  0 
  2  8  1  0  0  0  0 
  4  3  3  0  0  0  0 
  5 18  1  0  0  0  0 
  6 20  1  0  0  0  0 
  6  8  1  0  0  0  0 
  7  3  1  6  0  0  0 
  7  1  1  0  0  0  0 
  7  9  1  0  0  0  0 
  7  5  1  0  0  0  0 
  8  4  1  1  0  0  0 
  9  5  1  0  0  0  0 
 10  6  1  0  0  0  0 
 10  8  1  0  0  0  0 
 11  1  1  0  0  0  0 
 12  1  1  0  0  0  0 
 15  2  1  0  0  0  0 
 17  5  1  0  0  0  0 
 19  6  1  0  0  0  0 
M  END 
>  <HBA> 
2 
 
>  <HBD> 
0 
 
>  <TPSA> 
25.06 
 
>  <cid> 
39144 
 
>  <dipole> 
0.8 
 
>  <excitation_energy_1> 
5.699 
 
>  <excitation_energy_2> 
6.145 
 
>  <excitation_energy_3> 
6.327 
 
>  <excitation_energy_4> 
6.468 
 
>  <homo_energy> 
-6.776 
 
>  <homo_lumo_gap> 
7.034 
 
>  <logP> 
0.568 
 
>  <lumo_energy> 
0.259 
 
>  <melting_point> 
38.76 
 
>  <molecular_refractivity> 
36.75 
 
>  <oscillator_strength_1> 
0.0386 
 
>  <oscillator_strength_2> 
0.0018 
 
>  <oscillator_strength_3> 
0.086 
 
>  <oscillator_strength_4> 
0.0351 
 
>  <open_babel_can_smiles> 
C[C@@]1(OC1)C#C[C@]1(C)OC1 
 
>  <mulliken_charges> 
20 
1   -0.463109 
2   -0.46376 
3   0.087231 
4   0.090677 
5   -0.107202 
6   -0.105885 
7   0.122402 
8   0.120535 
9   -0.444219 
10   -0.444429 
11   0.16526 
12   0.1701 
13   0.160068 
14   0.163587 
15   0.160945 
16   0.16852 
17   0.15715 
18   0.151002 
19   0.151374 
20   0.159752 
 
>  <lowdin_charges> 
20 
1   -0.432963 
2   -0.432962 
3   -0.066373 
4   -0.066384 
5   -0.153163 
6   -0.154493 
7   0.117866 
8   0.118702 
9   -0.272881 
10   -0.272245 
11   0.165776 
12   0.167074 
13   0.160886 
14   0.165492 
15   0.161324 
16   0.164376 
17   0.158993 
18   0.154158 
19   0.15473 
20   0.162088 
 
$$$$ 
 
