PCCDB-ID:  24220 
public computational chemistry database (PCCDB) project, http://pccdb.org 
 
 38 38  0  0  1  0  0  0  0  0999 V2000 
    2.5750    3.0655   -0.6307 C   0  0  0  0  0  0  0  0  0  0  0  0 
    4.3307    5.3624    5.4408 C   0  0  0  0  0  0  0  0  0  0  0  0 
   -0.5389   -1.4688   -1.2981 C   0  0  0  0  0  0  0  0  0  0  0  0 
    0.6164   -0.9701   -1.8946 C   0  0  0  0  0  0  0  0  0  0  0  0 
   -0.8862   -1.0283   -0.0163 C   0  0  0  0  0  0  0  0  0  0  0  0 
    1.4271   -0.0412   -1.2334 C   0  0  0  0  0  0  0  0  0  0  0  0 
   -0.0912   -0.1055    0.6537 C   0  0  0  0  0  0  0  0  0  0  0  0 
    6.0600    3.8807    3.2413 C   0  0  0  0  0  0  0  0  0  0  0  0 
    5.4644    3.4528    4.5898 C   0  0  0  0  0  0  0  0  0  0  0  0 
    5.2130    2.7644    1.1654 C   0  0  0  0  0  0  0  0  0  0  0  0 
    2.9609    1.9102    0.2951 C   0  0  1  0  0  0  0  0  0  0  0  0 
    1.0740    0.3934    0.0508 C   0  0  0  0  0  0  0  0  0  0  0  0 
    3.7822    2.3366    1.5318 C   0  0  2  0  0  0  0  0  0  0  0  0 
    6.1300    2.7528    2.3004 N   0  0  0  0  0  0  0  0  0  0  0  0 
    3.1093    3.3271    2.3067 O   0  0  0  0  0  0  0  0  0  0  0  0 
    5.4578    4.5157    5.5346 O   0  0  0  0  0  0  0  0  0  0  0  0 
    1.7859    1.2772    0.8141 O   0  0  0  0  0  0  0  0  0  0  0  0 
    3.4614    3.5557   -1.0494 H   0  0  0  0  0  0  0  0  0  0  0  0 
    1.9839    3.8050   -0.0805 H   0  0  0  0  0  0  0  0  0  0  0  0 
    1.9617    2.7089   -1.4625 H   0  0  0  0  0  0  0  0  0  0  0  0 
    3.3904    4.7993    5.5450 H   0  0  0  0  0  0  0  0  0  0  0  0 
    4.2916    5.9183    4.4908 H   0  0  0  0  0  0  0  0  0  0  0  0 
    4.4060    6.0841    6.2595 H   0  0  0  0  0  0  0  0  0  0  0  0 
   -1.1621   -2.1879   -1.8216 H   0  0  0  0  0  0  0  0  0  0  0  0 
    0.9007   -1.2997   -2.8908 H   0  0  0  0  0  0  0  0  0  0  0  0 
   -1.7834   -1.4071    0.4663 H   0  0  0  0  0  0  0  0  0  0  0  0 
    2.3191    0.3272   -1.7271 H   0  0  0  0  0  0  0  0  0  0  0  0 
   -0.3446    0.2447    1.6495 H   0  0  0  0  0  0  0  0  0  0  0  0 
    7.0688    4.2690    3.4279 H   0  0  0  0  0  0  0  0  0  0  0  0 
    5.4761    4.7123    2.8191 H   0  0  0  0  0  0  0  0  0  0  0  0 
    6.0895    2.6611    5.0169 H   0  0  0  0  0  0  0  0  0  0  0  0 
    4.4534    3.0524    4.4404 H   0  0  0  0  0  0  0  0  0  0  0  0 
    5.1676    3.7540    0.6638 H   0  0  0  0  0  0  0  0  0  0  0  0 
    5.6075    2.0568    0.4254 H   0  0  0  0  0  0  0  0  0  0  0  0 
    3.5607    1.1696   -0.2519 H   0  0  0  0  0  0  0  0  0  0  0  0 
    3.8490    1.4648    2.1887 H   0  0  0  0  0  0  0  0  0  0  0  0 
    7.0772    2.6602    1.9513 H   0  0  0  0  0  0  0  0  0  0  0  0 
    3.1355    4.1605    1.8099 H   0  0  0  0  0  0  0  0  0  0  0  0 
  1 19  1  0  0  0  0 
  1 11  1  0  0  0  0 
  2 16  1  0  0  0  0 
  2 21  1  0  0  0  0 
  2 23  1  0  0  0  0 
  3  5  1  0  0  0  0 
  4  3  2  0  0  0  0 
  4  6  1  0  0  0  0 
  5 26  1  0  0  0  0 
  5  7  2  0  0  0  0 
  6 12  2  0  0  0  0 
  7 28  1  0  0  0  0 
  8 29  1  0  0  0  0 
  8  9  1  0  0  0  0 
  9 31  1  0  0  0  0 
  9 16  1  0  0  0  0 
 10 13  1  0  0  0  0 
 10 14  1  0  0  0  0 
 11 35  1  6  0  0  0 
 11 17  1  0  0  0  0 
 11 13  1  0  0  0  0 
 12  7  1  0  0  0  0 
 12 17  1  0  0  0  0 
 13 36  1  1  0  0  0 
 13 15  1  0  0  0  0 
 14  8  1  0  0  0  0 
 18  1  1  0  0  0  0 
 20  1  1  0  0  0  0 
 22  2  1  0  0  0  0 
 24  3  1  0  0  0  0 
 25  4  1  0  0  0  0 
 27  6  1  0  0  0  0 
 30  8  1  0  0  0  0 
 32  9  1  0  0  0  0 
 33 10  1  0  0  0  0 
 34 10  1  0  0  0  0 
 37 14  1  0  0  0  0 
 38 15  1  0  0  0  0 
M  END 
>  <HBA> 
4 
 
>  <HBD> 
2 
 
>  <TPSA> 
50.72 
 
>  <cid> 
24220 
 
>  <dipole> 
3.8 
 
>  <excitation_energy_1> 
4.992 
 
>  <excitation_energy_2> 
5.128 
 
>  <excitation_energy_3> 
5.229 
 
>  <excitation_energy_4> 
5.478 
 
>  <homo_energy> 
-5.812 
 
>  <homo_lumo_gap> 
5.883 
 
>  <logP> 
1.442 
 
>  <lumo_energy> 
0.071 
 
>  <melting_point> 
41.28 
 
>  <molecular_refractivity> 
66.82 
 
>  <oscillator_strength_1> 
0.0272 
 
>  <oscillator_strength_2> 
0.0067 
 
>  <oscillator_strength_3> 
0.0131 
 
>  <oscillator_strength_4> 
0.0202 
 
>  <open_babel_can_smiles> 
COCCNC[C@H]([C@@H](Oc1ccccc1)C)O 
 
>  <mulliken_charges> 
38 
1   -0.49242 
2   -0.193049 
3   -0.134214 
4   -0.138418 
5   -0.131965 
6   -0.193172 
7   -0.177851 
8   -0.151155 
9   -0.014799 
10   -0.156188 
11   0.141802 
12   0.376841 
13   0.122962 
14   -0.555083 
15   -0.615991 
16   -0.466904 
17   -0.533325 
18   0.148556 
19   0.157546 
20   0.171054 
21   0.138902 
22   0.120172 
23   0.151734 
24   0.12442 
25   0.127473 
26   0.12986 
27   0.128999 
28   0.140434 
29   0.138013 
30   0.117953 
31   0.137855 
32   0.151673 
33   0.106829 
34   0.135205 
35   0.129141 
36   0.164924 
37   0.304402 
38   0.387785 
 
>  <lowdin_charges> 
38 
1   -0.47029 
2   -0.279639 
3   -0.182163 
4   -0.146589 
5   -0.146654 
6   -0.21981 
7   -0.182901 
8   -0.218222 
9   -0.145751 
10   -0.219245 
11   -0.010766 
12   0.104971 
13   -0.019275 
14   -0.357784 
15   -0.447984 
16   -0.277231 
17   -0.193081 
18   0.154183 
19   0.157885 
20   0.167463 
21   0.135901 
22   0.124642 
23   0.152012 
24   0.157603 
25   0.155777 
26   0.158647 
27   0.158885 
28   0.166825 
29   0.142042 
30   0.127609 
31   0.145601 
32   0.143323 
33   0.114661 
34   0.14922 
35   0.139325 
36   0.162663 
37   0.260676 
38   0.337472 
 
$$$$ 
 
