PCCDB-ID:  33735 
public computational chemistry database (PCCDB) project, http://pccdb.org 
 
 30 30  0  0  0  0  0  0  0  0999 V2000 
    2.7486    2.3143   -0.9590 C   0  0  0  0  0  0  0  0  0  0  0  0 
    0.9865   -1.3203    1.0287 C   0  0  0  0  0  0  0  0  0  0  0  0 
    9.3799    0.7419    0.8852 C   0  0  0  0  0  0  0  0  0  0  0  0 
    8.6583   -0.2209    1.5947 C   0  0  0  0  0  0  0  0  0  0  0  0 
    8.7751    1.4096   -0.1804 C   0  0  0  0  0  0  0  0  0  0  0  0 
    7.3409   -0.5114    1.2404 C   0  0  0  0  0  0  0  0  0  0  0  0 
    7.4561    1.1163   -0.5315 C   0  0  0  0  0  0  0  0  0  0  0  0 
    5.2786   -0.1423   -0.1764 C   0  0  0  0  0  0  0  0  0  0  0  0 
    4.3090    0.6132    0.7546 C   0  0  0  0  0  0  0  0  0  0  0  0 
    2.1053    1.0654   -0.3726 C   0  0  0  0  0  0  0  0  0  0  0  0 
    2.4322   -0.8961    1.1409 C   0  0  0  0  0  0  0  0  0  0  0  0 
    6.7218    0.1528    0.1714 C   0  0  0  0  0  0  0  0  0  0  0  0 
    2.8890    0.2901    0.5007 N   0  0  0  0  0  0  0  0  0  0  0  0 
    0.9551    0.7782   -0.6571 O   0  0  0  0  0  0  0  0  0  0  0  0 
    3.2316   -1.5485    1.7930 O   0  0  0  0  0  0  0  0  0  0  0  0 
    3.6835    2.0973   -1.4851 H   0  0  0  0  0  0  0  0  0  0  0  0 
    2.9655    3.0556   -0.1816 H   0  0  0  0  0  0  0  0  0  0  0  0 
    2.0312    2.7400   -1.6613 H   0  0  0  0  0  0  0  0  0  0  0  0 
    0.7262   -1.5724   -0.0021 H   0  0  0  0  0  0  0  0  0  0  0  0 
    0.3037   -0.5222    1.3287 H   0  0  0  0  0  0  0  0  0  0  0  0 
    0.8673   -2.1925    1.6743 H   0  0  0  0  0  0  0  0  0  0  0  0 
   10.4071    0.9669    1.1591 H   0  0  0  0  0  0  0  0  0  0  0  0 
    9.1233   -0.7496    2.4227 H   0  0  0  0  0  0  0  0  0  0  0  0 
    9.3302    2.1565   -0.7421 H   0  0  0  0  0  0  0  0  0  0  0  0 
    6.7832   -1.2645    1.7928 H   0  0  0  0  0  0  0  0  0  0  0  0 
    6.9940    1.6365   -1.3685 H   0  0  0  0  0  0  0  0  0  0  0  0 
    5.0775    0.1321   -1.2196 H   0  0  0  0  0  0  0  0  0  0  0  0 
    5.0763   -1.2133   -0.0768 H   0  0  0  0  0  0  0  0  0  0  0  0 
    4.4512    1.6898    0.6617 H   0  0  0  0  0  0  0  0  0  0  0  0 
    4.5183    0.3390    1.7886 H   0  0  0  0  0  0  0  0  0  0  0  0 
  1 10  1  0  0  0  0 
  1 17  1  0  0  0  0 
  2 11  1  0  0  0  0 
  2 20  1  0  0  0  0 
  2 21  1  0  0  0  0 
  3 22  1  0  0  0  0 
  3  4  2  0  0  0  0 
  4 23  1  0  0  0  0 
  5  3  1  0  0  0  0 
  6  4  1  0  0  0  0 
  6 25  1  0  0  0  0 
  7  5  2  0  0  0  0 
  7 12  1  0  0  0  0 
  8 28  1  0  0  0  0 
  8 12  1  0  0  0  0 
  8  9  1  0  0  0  0 
  9 30  1  0  0  0  0 
 10 13  1  0  0  0  0 
 11 15  2  0  0  0  0 
 12  6  2  0  0  0  0 
 13  9  1  0  0  0  0 
 13 11  1  0  0  0  0 
 14 10  2  0  0  0  0 
 16  1  1  0  0  0  0 
 18  1  1  0  0  0  0 
 19  2  1  0  0  0  0 
 24  5  1  0  0  0  0 
 26  7  1  0  0  0  0 
 27  8  1  0  0  0  0 
 29  9  1  0  0  0  0 
M  END 
>  <HBA> 
3 
 
>  <HBD> 
0 
 
>  <TPSA> 
37.38 
 
>  <cid> 
33735 
 
>  <dipole> 
2.67 
 
>  <excitation_energy_1> 
4.82 
 
>  <excitation_energy_2> 
5.085 
 
>  <excitation_energy_3> 
5.298 
 
>  <excitation_energy_4> 
5.317 
 
>  <homo_energy> 
-6.615 
 
>  <homo_lumo_gap> 
5.954 
 
>  <logP> 
1.624 
 
>  <lumo_energy> 
-0.661 
 
>  <melting_point> 
49.25 
 
>  <molecular_refractivity> 
58.74 
 
>  <oscillator_strength_1> 
0.0012 
 
>  <oscillator_strength_2> 
0.0002 
 
>  <oscillator_strength_3> 
0.0022 
 
>  <oscillator_strength_4> 
0.0147 
 
>  <open_babel_can_smiles> 
CC(=O)N(C(=O)C)CCc1ccccc1 
 
>  <mulliken_charges> 
30 
1   -0.553459 
2   -0.501166 
3   -0.130118 
4   -0.128274 
5   -0.12743 
6   -0.182864 
7   -0.184709 
8   -0.35482 
9   -0.151867 
10   0.579668 
11   0.578743 
12   0.16121 
13   -0.477034 
14   -0.472545 
15   -0.478681 
16   0.177004 
17   0.183521 
18   0.192946 
19   0.192071 
20   0.184553 
21   0.169489 
22   0.130185 
23   0.132529 
24   0.129606 
25   0.145059 
26   0.118462 
27   0.140989 
28   0.178019 
29   0.157665 
30   0.191246 
 
>  <lowdin_charges> 
30 
1   -0.474905 
2   -0.463464 
3   -0.157763 
4   -0.153645 
5   -0.156404 
6   -0.165136 
7   -0.171213 
8   -0.278957 
9   -0.19744 
10   0.176468 
11   0.196914 
12   -0.004292 
13   -0.103011 
14   -0.266841 
15   -0.274156 
16   0.170491 
17   0.175426 
18   0.182537 
19   0.183618 
20   0.180995 
21   0.169265 
22   0.156975 
23   0.159805 
24   0.158845 
25   0.164987 
26   0.152375 
27   0.144607 
28   0.16565 
29   0.15499 
30   0.17328 
 
$$$$ 
 
