PCCDB-ID:  34289 
public computational chemistry database (PCCDB) project, http://pccdb.org 
 
 22 22  0  0  0  0  0  0  0  0999 V2000 
    2.7737    0.7709    1.0843 C   0  0  0  0  0  0  0  0  0  0  0  0 
    1.2884   -0.9145    0.1944 C   0  0  0  0  0  0  0  0  0  0  0  0 
    4.1965    0.1892   -3.7790 C   0  0  0  0  0  0  0  0  0  0  0  0 
    3.9431    1.3005   -2.9702 C   0  0  0  0  0  0  0  0  0  0  0  0 
    3.9717   -1.0819   -3.2648 C   0  0  0  0  0  0  0  0  0  0  0  0 
    3.4340    1.1458   -1.6814 C   0  0  0  0  0  0  0  0  0  0  0  0 
    3.4582   -2.6386   -1.4159 C   0  0  0  0  0  0  0  0  0  0  0  0 
    3.4923   -1.2610   -1.9589 C   0  0  0  0  0  0  0  0  0  0  0  0 
    3.1743   -0.1326   -1.1585 C   0  0  0  0  0  0  0  0  0  0  0  0 
    2.6279   -0.3216    0.1331 N   0  0  0  0  0  0  0  0  0  0  0  0 
    3.5823   -3.6457   -2.0931 O   0  0  0  0  0  0  0  0  0  0  0  0 
    2.5452    0.3933    2.0867 H   0  0  0  0  0  0  0  0  0  0  0  0 
    2.0973    1.6219    0.8870 H   0  0  0  0  0  0  0  0  0  0  0  0 
    3.8046    1.1344    1.0823 H   0  0  0  0  0  0  0  0  0  0  0  0 
    1.1219   -1.3404    1.1900 H   0  0  0  0  0  0  0  0  0  0  0  0 
    1.1837   -1.7119   -0.5422 H   0  0  0  0  0  0  0  0  0  0  0  0 
    0.4994   -0.1665    0.0011 H   0  0  0  0  0  0  0  0  0  0  0  0 
    4.5812    0.3171   -4.7865 H   0  0  0  0  0  0  0  0  0  0  0  0 
    4.1261    2.3026   -3.3502 H   0  0  0  0  0  0  0  0  0  0  0  0 
    4.1939   -1.9740   -3.8428 H   0  0  0  0  0  0  0  0  0  0  0  0 
    3.2128    2.0280   -1.0906 H   0  0  0  0  0  0  0  0  0  0  0  0 
    3.3546   -2.7090   -0.3154 H   0  0  0  0  0  0  0  0  0  0  0  0 
  1 12  1  0  0  0  0 
  2 15  1  0  0  0  0 
  3  5  2  0  0  0  0 
  3  4  1  0  0  0  0 
  4  6  2  0  0  0  0 
  5  8  1  0  0  0  0 
  6  9  1  0  0  0  0 
  6 21  1  0  0  0  0 
  7 22  1  0  0  0  0 
  8  7  1  0  0  0  0 
  8  9  2  0  0  0  0 
  9 10  1  0  0  0  0 
 10  2  1  0  0  0  0 
 10  1  1  0  0  0  0 
 11  7  2  0  0  0  0 
 13  1  1  0  0  0  0 
 14  1  1  0  0  0  0 
 16  2  1  0  0  0  0 
 17  2  1  0  0  0  0 
 18  3  1  0  0  0  0 
 19  4  1  0  0  0  0 
 20  5  1  0  0  0  0 
M  END 
>  <HBA> 
2 
 
>  <HBD> 
0 
 
>  <TPSA> 
20.31 
 
>  <cid> 
34289 
 
>  <dipole> 
4.1 
 
>  <excitation_energy_1> 
3.332 
 
>  <excitation_energy_2> 
3.794 
 
>  <excitation_energy_3> 
4.726 
 
>  <excitation_energy_4> 
5.09 
 
>  <homo_energy> 
-5.78 
 
>  <homo_lumo_gap> 
4.272 
 
>  <logP> 
1.565 
 
>  <lumo_energy> 
-1.508 
 
>  <melting_point> 
47.44 
 
>  <molecular_refractivity> 
46.04 
 
>  <oscillator_strength_1> 
0.0332 
 
>  <oscillator_strength_2> 
0.0294 
 
>  <oscillator_strength_3> 
0.0365 
 
>  <oscillator_strength_4> 
0.1365 
 
>  <open_babel_can_smiles> 
O=Cc1ccccc1N(C)C 
 
>  <mulliken_charges> 
22 
1   -0.310296 
2   -0.314243 
3   -0.12781 
4   -0.131937 
5   -0.175365 
6   -0.179076 
7   0.18083 
8   0.050792 
9   0.258722 
10   -0.460512 
11   -0.41714 
12   0.159433 
13   0.135649 
14   0.167932 
15   0.159269 
16   0.172025 
17   0.141101 
18   0.134656 
19   0.136458 
20   0.16276 
21   0.133547 
22   0.123204 
 
>  <lowdin_charges> 
22 
1   -0.354098 
2   -0.350306 
3   -0.169522 
4   -0.131834 
5   -0.121583 
6   -0.196557 
7   0.041407 
8   -0.079507 
9   0.060472 
10   -0.144156 
11   -0.241547 
12   0.156114 
13   0.131267 
14   0.160208 
15   0.152959 
16   0.164298 
17   0.135997 
18   0.160095 
19   0.16018 
20   0.175989 
21   0.163527 
22   0.126599 
 
$$$$ 
 
