PCCDB-ID:  67285 
public computational chemistry database (PCCDB) project, http://pccdb.org 
 
 26 27  0  0  0  0  0  0  0  0999 V2000 
    0.8828    0.2957   -0.1934 C   0  0  0  0  0  0  0  0  0  0  0  0 
    2.7496   -0.5052    1.3315 C   0  0  0  0  0  0  0  0  0  0  0  0 
    2.9527   -5.2333   -3.4199 C   0  0  0  0  0  0  0  0  0  0  0  0 
    2.4697   -4.4627   -2.3898 C   0  0  0  0  0  0  0  0  0  0  0  0 
    3.7878   -0.4634   -2.1579 C   0  0  0  0  0  0  0  0  0  0  0  0 
    4.2427   -1.2779   -3.1699 C   0  0  0  0  0  0  0  0  0  0  0  0 
    3.8616   -4.6497   -4.3400 C   0  0  0  0  0  0  0  0  0  0  0  0 
    2.4444   -2.2423   -1.2478 C   0  0  0  0  0  0  0  0  0  0  0  0 
    2.3924    0.0109   -0.0747 C   0  0  0  0  0  0  0  0  0  0  0  0 
    2.8752   -0.9306   -1.1717 C   0  0  0  0  0  0  0  0  0  0  0  0 
    2.8895   -3.1117   -2.2756 C   0  0  0  0  0  0  0  0  0  0  0  0 
    3.8080   -2.6246   -3.2597 C   0  0  0  0  0  0  0  0  0  0  0  0 
    4.2815   -3.4025   -4.2783 N   0  0  0  0  0  0  0  0  0  0  0  0 
    0.5652    1.0201    0.5661 H   0  0  0  0  0  0  0  0  0  0  0  0 
    0.2946   -0.6185   -0.0501 H   0  0  0  0  0  0  0  0  0  0  0  0 
    0.6319    0.7024   -1.1791 H   0  0  0  0  0  0  0  0  0  0  0  0 
    2.4583    0.2256    2.0952 H   0  0  0  0  0  0  0  0  0  0  0  0 
    3.8256   -0.6875    1.4262 H   0  0  0  0  0  0  0  0  0  0  0  0 
    2.2307   -1.4447    1.5561 H   0  0  0  0  0  0  0  0  0  0  0  0 
    2.6536   -6.2704   -3.5400 H   0  0  0  0  0  0  0  0  0  0  0  0 
    1.7715   -4.8693   -1.6614 H   0  0  0  0  0  0  0  0  0  0  0  0 
    4.1323    0.5670   -2.1027 H   0  0  0  0  0  0  0  0  0  0  0  0 
    4.9398   -0.9199   -3.9213 H   0  0  0  0  0  0  0  0  0  0  0  0 
    4.2532   -5.2507   -5.1607 H   0  0  0  0  0  0  0  0  0  0  0  0 
    1.7470   -2.6346   -0.5102 H   0  0  0  0  0  0  0  0  0  0  0  0 
    2.9174    0.9655   -0.2158 H   0  0  0  0  0  0  0  0  0  0  0  0 
  1  9  1  0  0  0  0 
  1 15  1  0  0  0  0 
  1 14  1  0  0  0  0 
  2 18  1  0  0  0  0 
  2 19  1  0  0  0  0 
  2 17  1  0  0  0  0 
  3  4  2  0  0  0  0 
  4 11  1  0  0  0  0 
  4 21  1  0  0  0  0 
  5 22  1  0  0  0  0 
  5 10  2  0  0  0  0 
  6  5  1  0  0  0  0 
  7 13  2  0  0  0  0 
  7  3  1  0  0  0  0 
  8 10  1  0  0  0  0 
  8 25  1  0  0  0  0 
  9  2  1  0  0  0  0 
 10  9  1  0  0  0  0 
 11  8  2  0  0  0  0 
 12  6  2  0  0  0  0 
 12 11  1  0  0  0  0 
 13 12  1  0  0  0  0 
 16  1  1  0  0  0  0 
 20  3  1  0  0  0  0 
 23  6  1  0  0  0  0 
 24  7  1  0  0  0  0 
 26  9  1  0  0  0  0 
M  END 
>  <HBA> 
1 
 
>  <HBD> 
0 
 
>  <TPSA> 
12.89 
 
>  <cid> 
67285 
 
>  <dipole> 
2.24 
 
>  <excitation_energy_1> 
4.267 
 
>  <excitation_energy_2> 
4.282 
 
>  <excitation_energy_3> 
4.452 
 
>  <excitation_energy_4> 
5.274 
 
>  <homo_energy> 
-6.133 
 
>  <homo_lumo_gap> 
4.803 
 
>  <logP> 
3.358 
 
>  <lumo_energy> 
-1.331 
 
>  <melting_point> 
66.67 
 
>  <molecular_refractivity> 
56.32 
 
>  <oscillator_strength_1> 
0.0377 
 
>  <oscillator_strength_2> 
0.0016 
 
>  <oscillator_strength_3> 
0.0286 
 
>  <oscillator_strength_4> 
0.0 
 
>  <open_babel_can_smiles> 
CC(c1ccc2c(c1)cccn2)C 
 
>  <mulliken_charges> 
26 
1   -0.43682 
2   -0.438855 
3   -0.156024 
4   -0.14734 
5   -0.199985 
6   -0.136622 
7   0.042955 
8   -0.27119 
9   -0.160551 
10   0.186676 
11   0.166271 
12   0.23156 
13   -0.496545 
14   0.142691 
15   0.14367 
16   0.151065 
17   0.142955 
18   0.151528 
19   0.143356 
20   0.136104 
21   0.138902 
22   0.128288 
23   0.142931 
24   0.138681 
25   0.125769 
26   0.130528 
 
>  <lowdin_charges> 
26 
1   -0.441673 
2   -0.440434 
3   -0.181038 
4   -0.129882 
5   -0.161227 
6   -0.151268 
7   -0.089488 
8   -0.169376 
9   -0.118533 
10   0.002156 
11   -0.013845 
12   0.03735 
13   -0.148877 
14   0.15 
15   0.147942 
16   0.153216 
17   0.15031 
18   0.15204 
19   0.147229 
20   0.162582 
21   0.162237 
22   0.156198 
23   0.170196 
24   0.15625 
25   0.15537 
26   0.142564 
 
$$$$ 
 
