PCCDB-ID:  61002 
public computational chemistry database (PCCDB) project, http://pccdb.org 
 
 20 20  0  0  0  0  0  0  0  0999 V2000 
   -1.8727   -0.2077    0.0230 C   0  0  0  0  0  0  0  0  0  0  0  0 
   -1.3000    0.9233   -0.5615 C   0  0  0  0  0  0  0  0  0  0  0  0 
   -1.0383   -1.2067    0.5286 C   0  0  0  0  0  0  0  0  0  0  0  0 
    0.0848    1.0641   -0.6471 C   0  0  0  0  0  0  0  0  0  0  0  0 
    0.3467   -1.0767    0.4543 C   0  0  0  0  0  0  0  0  0  0  0  0 
    0.9175    0.0591   -0.1385 C   0  0  0  0  0  0  0  0  0  0  0  0 
    3.9256    1.5461   -1.2884 C   0  0  0  0  0  0  0  0  0  0  0  0 
    4.2639    0.8008   -2.2601 N   0  0  0  0  0  0  0  0  0  0  0  0 
    2.3245    0.1311   -0.2521 N   0  0  0  0  0  0  0  0  0  0  0  0 
    2.8956    1.3913   -0.3641 N   0  0  0  0  0  0  0  0  0  0  0  0 
    4.5742    2.7105   -1.0270 O   0  0  0  0  0  0  0  0  0  0  0  0 
   -2.9522   -0.3085    0.0860 H   0  0  0  0  0  0  0  0  0  0  0  0 
   -1.9358    1.7100   -0.9593 H   0  0  0  0  0  0  0  0  0  0  0  0 
   -1.4647   -2.0929    0.9912 H   0  0  0  0  0  0  0  0  0  0  0  0 
    0.5275    1.9426   -1.1029 H   0  0  0  0  0  0  0  0  0  0  0  0 
    0.9900   -1.8589    0.8530 H   0  0  0  0  0  0  0  0  0  0  0  0 
    3.6609   -0.0217   -2.2991 H   0  0  0  0  0  0  0  0  0  0  0  0 
    2.8137   -0.4779    0.4002 H   0  0  0  0  0  0  0  0  0  0  0  0 
    2.9872    1.9431    0.4858 H   0  0  0  0  0  0  0  0  0  0  0  0 
    5.2446    2.7862   -1.7281 H   0  0  0  0  0  0  0  0  0  0  0  0 
  1 12  1  0  0  0  0 
  1  3  2  0  0  0  0 
  2  1  1  0  0  0  0 
  3 14  1  0  0  0  0 
  4  2  2  0  0  0  0 
  4  6  1  0  0  0  0 
  5  3  1  0  0  0  0 
  5 16  1  0  0  0  0 
  6  5  2  0  0  0  0 
  7 11  1  0  0  0  0 
  7 10  1  0  0  0  0 
  8  7  2  0  0  0  0 
  9  6  1  0  0  0  0 
  9 18  1  0  0  0  0 
 10  9  1  0  0  0  0 
 10 19  1  0  0  0  0 
 13  2  1  0  0  0  0 
 15  4  1  0  0  0  0 
 17  8  1  0  0  0  0 
 20 11  1  0  0  0  0 
M  END 
>  <HBA> 
4 
 
>  <HBD> 
3 
 
>  <TPSA> 
67.15 
 
>  <cid> 
61002 
 
>  <dipole> 
2.52 
 
>  <excitation_energy_1> 
4.805 
 
>  <excitation_energy_2> 
5.048 
 
>  <excitation_energy_3> 
5.435 
 
>  <excitation_energy_4> 
5.664 
 
>  <homo_energy> 
-5.804 
 
>  <homo_lumo_gap> 
5.774 
 
>  <logP> 
1.846 
 
>  <lumo_energy> 
-0.03 
 
>  <melting_point> 
151.02 
 
>  <molecular_refractivity> 
41.85 
 
>  <oscillator_strength_1> 
0.0188 
 
>  <oscillator_strength_2> 
0.0277 
 
>  <oscillator_strength_3> 
0.1501 
 
>  <oscillator_strength_4> 
0.0093 
 
>  <open_babel_can_smiles> 
OC(=N)NNc1ccccc1 
 
>  <mulliken_charges> 
20 
1   -0.132087 
2   -0.138728 
3   -0.134047 
4   -0.158146 
5   -0.193626 
6   0.327546 
7   0.648088 
8   -0.648515 
9   -0.524315 
10   -0.472739 
11   -0.609909 
12   0.126268 
13   0.131319 
14   0.129976 
15   0.147654 
16   0.119897 
17   0.301657 
18   0.322002 
19   0.33354 
20   0.424165 
 
>  <lowdin_charges> 
20 
1   -0.176969 
2   -0.145258 
3   -0.145607 
4   -0.191043 
5   -0.199859 
6   0.050294 
7   0.152513 
8   -0.472505 
9   -0.234288 
10   -0.241657 
11   -0.381868 
12   0.155382 
13   0.159844 
14   0.158799 
15   0.169554 
16   0.154275 
17   0.267592 
18   0.26961 
19   0.279636 
20   0.371555 
 
$$$$ 
 
