PCCDB-ID:  31877 
public computational chemistry database (PCCDB) project, http://pccdb.org 
 
 13 12  0  0  0  0  0  0  0  0999 V2000 
    0.9624    0.0950    0.1112 C   0  0  0  0  0  0  0  0  0  0  0  0 
    2.4592    0.0222    0.0936 C   0  0  0  0  0  0  0  0  0  0  0  0 
    3.2840    1.0484    0.3454 C   0  0  0  0  0  0  0  0  0  0  0  0 
    4.7644    0.9682    0.3632 C   0  0  0  0  0  0  0  0  0  0  0  0 
    5.5495    1.7588    0.9808 N   0  0  0  0  0  0  0  0  0  0  0  0 
    5.3338   -0.0671   -0.3213 O   0  0  0  0  0  0  0  0  0  0  0  0 
    0.5423   -0.2111   -0.8561 H   0  0  0  0  0  0  0  0  0  0  0  0 
    0.6081    1.1063    0.3338 H   0  0  0  0  0  0  0  0  0  0  0  0 
    0.5467   -0.5887    0.8631 H   0  0  0  0  0  0  0  0  0  0  0  0 
    2.8826   -0.9621   -0.1144 H   0  0  0  0  0  0  0  0  0  0  0  0 
    2.8681    2.0213    0.6034 H   0  0  0  0  0  0  0  0  0  0  0  0 
    5.0035    2.4526    1.4955 H   0  0  0  0  0  0  0  0  0  0  0  0 
    4.6934   -0.3991   -0.9691 H   0  0  0  0  0  0  0  0  0  0  0  0 
  1  8  1  0  0  0  0 
  1  9  1  0  0  0  0 
  2  1  1  0  0  0  0 
  2  3  2  0  0  0  0 
  3  4  1  0  0  0  0 
  3 11  1  0  0  0  0 
  4  5  2  0  0  0  0 
  5 12  1  0  0  0  0 
  6  4  1  0  0  0  0 
  7  1  1  0  0  0  0 
 10  2  1  0  0  0  0 
 13  6  1  0  0  0  0 
M  END 
>  <HBA> 
2 
 
>  <HBD> 
1 
 
>  <TPSA> 
43.09 
 
>  <cid> 
31877 
 
>  <dipole> 
4.83 
 
>  <excitation_energy_1> 
5.005 
 
>  <excitation_energy_2> 
5.676 
 
>  <excitation_energy_3> 
6.157 
 
>  <excitation_energy_4> 
6.473 
 
>  <homo_energy> 
-6.868 
 
>  <homo_lumo_gap> 
5.913 
 
>  <logP> 
0.748 
 
>  <lumo_energy> 
-0.955 
 
>  <melting_point> 
60.2 
 
>  <molecular_refractivity> 
23.78 
 
>  <oscillator_strength_1> 
0.0059 
 
>  <oscillator_strength_2> 
0.2944 
 
>  <oscillator_strength_3> 
0.0046 
 
>  <oscillator_strength_4> 
0.2113 
 
>  <open_babel_can_smiles> 
C/C=C/C(=N)O 
 
>  <mulliken_charges> 
13 
1   -0.493471 
2   -0.103956 
3   -0.164842 
4   0.462171 
5   -0.58335 
6   -0.581774 
7   0.167012 
8   0.163853 
9   0.171409 
10   0.136891 
11   0.139887 
12   0.284273 
13   0.401899 
 
>  <lowdin_charges> 
13 
1   -0.438007 
2   -0.140207 
3   -0.209996 
4   0.124568 
5   -0.38774 
6   -0.369176 
7   0.164638 
8   0.160329 
9   0.168025 
10   0.153191 
11   0.162387 
12   0.257482 
13   0.354504 
 
$$$$ 
 
