PCCDB-ID:  23504 
public computational chemistry database (PCCDB) project, http://pccdb.org 
 
 24 23  0  0  0  0  0  0  0  0999 V2000 
    1.4675   -0.2560    0.5279 C   0  0  0  0  0  0  0  0  0  0  0  0 
    0.9549   -1.3573   -0.4145 C   0  0  0  0  0  0  0  0  0  0  0  0 
    2.7168    0.4435    0.0097 C   0  0  0  0  0  0  0  0  0  0  0  0 
    1.8620   -2.5750   -0.5442 C   0  0  0  0  0  0  0  0  0  0  0  0 
    4.1280    2.2092    0.6831 C   0  0  0  0  0  0  0  0  0  0  0  0 
    2.7456   -4.2583    0.8563 C   0  0  0  0  0  0  0  0  0  0  0  0 
    4.8513    2.0285   -0.3502 N   0  0  0  0  0  0  0  0  0  0  0  0 
    3.3528   -4.7706   -0.1392 N   0  0  0  0  0  0  0  0  0  0  0  0 
    4.2634    3.1168    1.6886 O   0  0  0  0  0  0  0  0  0  0  0  0 
    2.7246   -4.6526    2.1584 O   0  0  0  0  0  0  0  0  0  0  0  0 
    3.0429    1.4796    0.9563 O   0  0  0  0  0  0  0  0  0  0  0  0 
    1.9753   -3.1697    0.7637 O   0  0  0  0  0  0  0  0  0  0  0  0 
    1.6724   -0.6811    1.5163 H   0  0  0  0  0  0  0  0  0  0  0  0 
    0.6809    0.4963    0.6610 H   0  0  0  0  0  0  0  0  0  0  0  0 
    0.8037   -0.9501   -1.4241 H   0  0  0  0  0  0  0  0  0  0  0  0 
   -0.0280   -1.6944   -0.0645 H   0  0  0  0  0  0  0  0  0  0  0  0 
    2.5525    0.9000   -0.9733 H   0  0  0  0  0  0  0  0  0  0  0  0 
    3.5742   -0.2307   -0.0809 H   0  0  0  0  0  0  0  0  0  0  0  0 
    2.8641   -2.3236   -0.9063 H   0  0  0  0  0  0  0  0  0  0  0  0 
    1.4424   -3.3136   -1.2348 H   0  0  0  0  0  0  0  0  0  0  0  0 
    5.6378    2.6760   -0.3927 H   0  0  0  0  0  0  0  0  0  0  0  0 
    3.8950   -5.5950    0.1175 H   0  0  0  0  0  0  0  0  0  0  0  0 
    5.0449    3.6595    1.5037 H   0  0  0  0  0  0  0  0  0  0  0  0 
    3.2783   -5.4433    2.2453 H   0  0  0  0  0  0  0  0  0  0  0  0 
  1 14  1  0  0  0  0 
  1 13  1  0  0  0  0 
  2 16  1  0  0  0  0 
  2  1  1  0  0  0  0 
  3  1  1  0  0  0  0 
  3 11  1  0  0  0  0 
  4  2  1  0  0  0  0 
  4 12  1  0  0  0  0 
  5 11  1  0  0  0  0 
  5  9  1  0  0  0  0 
  6 10  1  0  0  0  0 
  7  5  2  0  0  0  0 
  8 22  1  0  0  0  0 
  8  6  2  0  0  0  0 
 10 24  1  0  0  0  0 
 12  6  1  0  0  0  0 
 15  2  1  0  0  0  0 
 17  3  1  0  0  0  0 
 18  3  1  0  0  0  0 
 19  4  1  0  0  0  0 
 20  4  1  0  0  0  0 
 21  7  1  0  0  0  0 
 23  9  1  0  0  0  0 
M  END 
>  <HBA> 
6 
 
>  <HBD> 
2 
 
>  <TPSA> 
104.64 
 
>  <cid> 
23504 
 
>  <dipole> 
1.5 
 
>  <excitation_energy_1> 
5.908 
 
>  <excitation_energy_2> 
5.95 
 
>  <excitation_energy_3> 
6.411 
 
>  <excitation_energy_4> 
6.449 
 
>  <homo_energy> 
-7.012 
 
>  <homo_lumo_gap> 
8.278 
 
>  <logP> 
1.358 
 
>  <lumo_energy> 
1.265 
 
>  <melting_point> 
127.48 
 
>  <molecular_refractivity> 
39.72 
 
>  <oscillator_strength_1> 
0.0052 
 
>  <oscillator_strength_2> 
0.0055 
 
>  <oscillator_strength_3> 
0.0497 
 
>  <oscillator_strength_4> 
0.0425 
 
>  <open_babel_can_smiles> 
OC(=N)OCCCCOC(=N)O 
 
>  <mulliken_charges> 
24 
1   -0.281641 
2   -0.296921 
3   -0.021255 
4   -0.026671 
5   0.645494 
6   0.64669 
7   -0.630199 
8   -0.628367 
9   -0.570467 
10   -0.570041 
11   -0.449302 
12   -0.446461 
13   0.172576 
14   0.149801 
15   0.142028 
16   0.155739 
17   0.153775 
18   0.163554 
19   0.165311 
20   0.161063 
21   0.274491 
22   0.276012 
23   0.406877 
24   0.407915 
 
>  <lowdin_charges> 
24 
1   -0.285611 
2   -0.281644 
3   -0.12128 
4   -0.121931 
5   0.187137 
6   0.188169 
7   -0.472882 
8   -0.470519 
9   -0.365871 
10   -0.365546 
11   -0.177053 
12   -0.182013 
13   0.161053 
14   0.154479 
15   0.149997 
16   0.156372 
17   0.148623 
18   0.153877 
19   0.152666 
20   0.156753 
21   0.255936 
22   0.256905 
23   0.360925 
24   0.361461 
 
$$$$ 
 
