PCCDB-ID:  22326 
public computational chemistry database (PCCDB) project, http://pccdb.org 
 
 20 20  0  0  0  0  0  0  0  0999 V2000 
    2.5866   -1.4485   -0.1940 C   0  0  0  0  0  0  0  0  0  0  0  0 
    1.7319    2.7113   -1.8359 C   0  0  0  0  0  0  0  0  0  0  0  0 
    2.7543    3.4711   -0.9787 C   0  0  0  0  0  0  0  0  0  0  0  0 
    2.4008    1.3433   -2.0455 C   0  0  0  0  0  0  0  0  0  0  0  0 
    3.2253    2.4127    0.0399 C   0  0  0  0  0  0  0  0  0  0  0  0 
    2.2962    0.0140    0.1014 C   0  0  0  0  0  0  0  0  0  0  0  0 
    3.1182    1.0404   -0.6807 C   0  0  0  0  0  0  0  0  0  0  0  0 
    1.4355    0.3395    0.8988 O   0  0  0  0  0  0  0  0  0  0  0  0 
    3.5627   -1.7168    0.2321 H   0  0  0  0  0  0  0  0  0  0  0  0 
    2.6503   -1.6338   -1.2727 H   0  0  0  0  0  0  0  0  0  0  0  0 
    1.8171   -2.0826    0.2511 H   0  0  0  0  0  0  0  0  0  0  0  0 
    1.4917    3.2125   -2.7802 H   0  0  0  0  0  0  0  0  0  0  0  0 
    0.7969    2.5858   -1.2754 H   0  0  0  0  0  0  0  0  0  0  0  0 
    2.3381    4.3628   -0.4974 H   0  0  0  0  0  0  0  0  0  0  0  0 
    3.5927    3.8005   -1.6076 H   0  0  0  0  0  0  0  0  0  0  0  0 
    3.1533    1.4105   -2.8405 H   0  0  0  0  0  0  0  0  0  0  0  0 
    1.6915    0.5620   -2.3420 H   0  0  0  0  0  0  0  0  0  0  0  0 
    2.5529    2.4027    0.9035 H   0  0  0  0  0  0  0  0  0  0  0  0 
    4.2391    2.6018    0.4076 H   0  0  0  0  0  0  0  0  0  0  0  0 
    4.1045    0.6055   -0.8804 H   0  0  0  0  0  0  0  0  0  0  0  0 
  1  6  1  0  0  0  0 
  1  9  1  0  0  0  0 
  1 11  1  0  0  0  0 
  2 13  1  0  0  0  0 
  2  3  1  0  0  0  0 
  3 14  1  0  0  0  0 
  3  5  1  0  0  0  0 
  4  2  1  0  0  0  0 
  4  7  1  0  0  0  0 
  5 19  1  0  0  0  0 
  5 18  1  0  0  0  0 
  6  8  2  0  0  0  0 
  7  5  1  0  0  0  0 
  7  6  1  0  0  0  0 
 10  1  1  0  0  0  0 
 12  2  1  0  0  0  0 
 15  3  1  0  0  0  0 
 16  4  1  0  0  0  0 
 17  4  1  0  0  0  0 
 20  7  1  0  0  0  0 
M  END 
>  <HBA> 
1 
 
>  <HBD> 
0 
 
>  <TPSA> 
17.07 
 
>  <cid> 
22326 
 
>  <dipole> 
2.6 
 
>  <excitation_energy_1> 
4.407 
 
>  <excitation_energy_2> 
6.014 
 
>  <excitation_energy_3> 
6.634 
 
>  <excitation_energy_4> 
6.738 
 
>  <homo_energy> 
-6.534 
 
>  <homo_lumo_gap> 
6.294 
 
>  <logP> 
1.766 
 
>  <lumo_energy> 
-0.239 
 
>  <melting_point> 
16.74 
 
>  <molecular_refractivity> 
33.85 
 
>  <oscillator_strength_1> 
0.0001 
 
>  <oscillator_strength_2> 
0.02 
 
>  <oscillator_strength_3> 
0.0113 
 
>  <oscillator_strength_4> 
0.0163 
 
>  <open_babel_can_smiles> 
CC(=O)C1CCCC1 
 
>  <mulliken_charges> 
20 
1   -0.529584 
2   -0.264322 
3   -0.269744 
4   -0.28224 
5   -0.279224 
6   0.439796 
7   -0.167721 
8   -0.440249 
9   0.171794 
10   0.165213 
11   0.177848 
12   0.13563 
13   0.153219 
14   0.138525 
15   0.12968 
16   0.141996 
17   0.141951 
18   0.173531 
19   0.133091 
20   0.13081 
 
>  <lowdin_charges> 
20 
1   -0.474316 
2   -0.280076 
3   -0.280266 
4   -0.276529 
5   -0.285999 
6   0.162488 
7   -0.165336 
8   -0.240959 
9   0.171879 
10   0.164286 
11   0.172453 
12   0.146326 
13   0.150061 
14   0.147847 
15   0.138633 
16   0.146638 
17   0.147927 
18   0.16264 
19   0.145001 
20   0.147304 
 
$$$$ 
 
