PCCDB-ID:  6993 
public computational chemistry database (PCCDB) project, http://pccdb.org 
 
 20 20  0  0  0  0  0  0  0  0999 V2000 
    0.8851   -0.0495   -0.0000 C   0  0  0  0  0  0  0  0  0  0  0  0 
    4.5121   -1.2433   -0.0753 C   0  0  0  0  0  0  0  0  0  0  0  0 
    5.2158   -0.0417   -0.0947 C   0  0  0  0  0  0  0  0  0  0  0  0 
    3.1160   -1.2267   -0.0482 C   0  0  0  0  0  0  0  0  0  0  0  0 
    4.5096    1.1627   -0.0887 C   0  0  0  0  0  0  0  0  0  0  0  0 
    2.3964    2.5263   -0.0864 C   0  0  0  0  0  0  0  0  0  0  0  0 
    2.3955   -0.0273   -0.0412 C   0  0  0  0  0  0  0  0  0  0  0  0 
    3.1113    1.1904   -0.0640 C   0  0  0  0  0  0  0  0  0  0  0  0 
    1.7307    2.7465   -1.3832 N   0  0  0  0  0  0  0  0  0  0  0  0 
    0.5059   -1.0729   -0.0822 H   0  0  0  0  0  0  0  0  0  0  0  0 
    0.4644    0.5546   -0.8096 H   0  0  0  0  0  0  0  0  0  0  0  0 
    0.5044    0.3675    0.9429 H   0  0  0  0  0  0  0  0  0  0  0  0 
    5.0430   -2.1919   -0.0792 H   0  0  0  0  0  0  0  0  0  0  0  0 
    6.3024   -0.0374   -0.1128 H   0  0  0  0  0  0  0  0  0  0  0  0 
    2.5695   -2.1672   -0.0312 H   0  0  0  0  0  0  0  0  0  0  0  0 
    5.0548    2.1047   -0.1027 H   0  0  0  0  0  0  0  0  0  0  0  0 
    3.1198    3.3164    0.1790 H   0  0  0  0  0  0  0  0  0  0  0  0 
    1.6144    2.5487    0.6836 H   0  0  0  0  0  0  0  0  0  0  0  0 
    2.4349    2.7728   -2.1196 H   0  0  0  0  0  0  0  0  0  0  0  0 
    1.2772    3.6596   -1.3836 H   0  0  0  0  0  0  0  0  0  0  0  0 
  1 12  1  0  0  0  0 
  2  4  2  0  0  0  0 
  3  5  2  0  0  0  0 
  3  2  1  0  0  0  0 
  4  7  1  0  0  0  0 
  4 15  1  0  0  0  0 
  5  8  1  0  0  0  0 
  6  8  1  0  0  0  0 
  6 17  1  0  0  0  0 
  6 18  1  0  0  0  0 
  7  1  1  0  0  0  0 
  8  7  2  0  0  0  0 
  9  6  1  0  0  0  0 
 10  1  1  0  0  0  0 
 11  1  1  0  0  0  0 
 13  2  1  0  0  0  0 
 14  3  1  0  0  0  0 
 16  5  1  0  0  0  0 
 19  9  1  0  0  0  0 
 20  9  1  0  0  0  0 
M  END 
>  <HBA> 
1 
 
>  <HBD> 
1 
 
>  <TPSA> 
26.02 
 
>  <cid> 
6993 
 
>  <dipole> 
1.33 
 
>  <excitation_energy_1> 
5.214 
 
>  <excitation_energy_2> 
5.388 
 
>  <excitation_energy_3> 
5.69 
 
>  <excitation_energy_4> 
5.798 
 
>  <homo_energy> 
-6.256 
 
>  <homo_lumo_gap> 
6.335 
 
>  <logP> 
2.154 
 
>  <lumo_energy> 
0.079 
 
>  <melting_point> 
66.24 
 
>  <molecular_refractivity> 
39.08 
 
>  <oscillator_strength_1> 
0.0031 
 
>  <oscillator_strength_2> 
0.0036 
 
>  <oscillator_strength_3> 
0.0459 
 
>  <oscillator_strength_4> 
0.0038 
 
>  <open_babel_can_smiles> 
NCc1ccccc1C 
 
>  <mulliken_charges> 
20 
1   -0.540592 
2   -0.124805 
3   -0.130544 
4   -0.187365 
5   -0.188485 
6   -0.224129 
7   0.146179 
8   0.115393 
9   -0.706405 
10   0.145283 
11   0.19605 
12   0.151125 
13   0.124821 
14   0.123881 
15   0.119739 
16   0.117781 
17   0.121566 
18   0.146936 
19   0.297812 
20   0.295759 
 
>  <lowdin_charges> 
20 
1   -0.449907 
2   -0.157647 
3   -0.162633 
4   -0.168961 
5   -0.16938 
6   -0.203726 
7   0.007569 
8   -0.021698 
9   -0.554846 
10   0.15177 
11   0.177662 
12   0.155055 
13   0.155745 
14   0.153122 
15   0.153151 
16   0.151245 
17   0.126071 
18   0.148745 
19   0.2557 
20   0.252963 
 
$$$$ 
 
