PCCDB-ID:  7304 
public computational chemistry database (PCCDB) project, http://pccdb.org 
 
 13 13  0  0  0  0  0  0  0  0999 V2000 
    0.8632    0.0250   -0.0334 C   0  0  0  0  0  0  0  0  0  0  0  0 
    4.4394   -0.6553   -0.0286 C   0  0  0  0  0  0  0  0  0  0  0  0 
    4.4241    0.7681   -0.0293 C   0  0  0  0  0  0  0  0  0  0  0  0 
    3.1267   -1.0758   -0.0297 C   0  0  0  0  0  0  0  0  0  0  0  0 
    3.1030    1.1632   -0.0308 C   0  0  0  0  0  0  0  0  0  0  0  0 
    2.3136    0.0355   -0.0307 N   0  0  0  0  0  0  0  0  0  0  0  0 
    0.5143   -1.0099   -0.0356 H   0  0  0  0  0  0  0  0  0  0  0  0 
    0.4676    0.5267   -0.9239 H   0  0  0  0  0  0  0  0  0  0  0  0 
    0.4640    0.5242    0.8569 H   0  0  0  0  0  0  0  0  0  0  0  0 
    5.3100   -1.2973   -0.0276 H   0  0  0  0  0  0  0  0  0  0  0  0 
    5.2815    1.4279   -0.0298 H   0  0  0  0  0  0  0  0  0  0  0  0 
    2.6979   -2.0683   -0.0288 H   0  0  0  0  0  0  0  0  0  0  0  0 
    2.6560    2.1477   -0.0300 H   0  0  0  0  0  0  0  0  0  0  0  0 
  1  6  1  0  0  0  0 
  1  9  1  0  0  0  0 
  2 10  1  0  0  0  0 
  3  2  1  0  0  0  0 
  4 12  1  0  0  0  0 
  4  2  2  0  0  0  0 
  5  6  1  0  0  0  0 
  5 13  1  0  0  0  0 
  5  3  2  0  0  0  0 
  6  4  1  0  0  0  0 
  7  1  1  0  0  0  0 
  8  1  1  0  0  0  0 
 11  3  1  0  0  0  0 
M  END 
>  <HBA> 
1 
 
>  <HBD> 
0 
 
>  <TPSA> 
4.93 
 
>  <cid> 
7304 
 
>  <dipole> 
2.1 
 
>  <excitation_energy_1> 
5.062 
 
>  <excitation_energy_2> 
5.609 
 
>  <excitation_energy_3> 
5.675 
 
>  <excitation_energy_4> 
5.681 
 
>  <homo_energy> 
-5.412 
 
>  <homo_lumo_gap> 
6.708 
 
>  <logP> 
1.025 
 
>  <lumo_energy> 
1.295 
 
>  <melting_point> 
5.48 
 
>  <molecular_refractivity> 
25.69 
 
>  <oscillator_strength_1> 
0.0001 
 
>  <oscillator_strength_2> 
0.1208 
 
>  <oscillator_strength_3> 
0.0019 
 
>  <oscillator_strength_4> 
0.0384 
 
>  <open_babel_can_smiles> 
Cn1cccc1 
 
>  <mulliken_charges> 
13 
1   -0.316599 
2   -0.188679 
3   -0.18376 
4   0.021036 
5   0.017494 
6   -0.361991 
7   0.167984 
8   0.169597 
9   0.16955 
10   0.119278 
11   0.119216 
12   0.134312 
13   0.132563 
 
>  <lowdin_charges> 
13 
1   -0.344904 
2   -0.219537 
3   -0.213094 
4   -0.165311 
5   -0.169002 
6   -0.002195 
7   0.164311 
8   0.158939 
9   0.15889 
10   0.15816 
11   0.15794 
12   0.157677 
13   0.158124 
 
$$$$ 
 
