PCCDB-ID:  57406 
public computational chemistry database (PCCDB) project, http://pccdb.org 
 
 21 21  0  0  0  0  0  0  0  0999 V2000 
    3.3956   -0.6480   -0.9526 C   0  0  0  0  0  0  0  0  0  0  0  0 
    6.9670   -3.9487   -6.1295 C   0  0  0  0  0  0  0  0  0  0  0  0 
    6.5896   -4.5778   -4.9448 C   0  0  0  0  0  0  0  0  0  0  0  0 
    6.9795   -2.5510   -6.1758 C   0  0  0  0  0  0  0  0  0  0  0  0 
    6.2322   -3.8366   -3.8166 C   0  0  0  0  0  0  0  0  0  0  0  0 
    6.6166   -1.8011   -5.0632 C   0  0  0  0  0  0  0  0  0  0  0  0 
    5.6842   -2.1810   -1.4483 C   0  0  0  0  0  0  0  0  0  0  0  0 
    6.2329   -2.4315   -3.8628 C   0  0  0  0  0  0  0  0  0  0  0  0 
    5.8361   -1.6348   -2.7818 N   0  0  0  0  0  0  0  0  0  0  0  0 
    5.0740   -0.9178   -0.2758 S   0  0  0  0  0  0  0  0  0  0  0  0 
    2.9676    0.2031   -0.4171 H   0  0  0  0  0  0  0  0  0  0  0  0 
    2.7619   -1.5254   -0.7931 H   0  0  0  0  0  0  0  0  0  0  0  0 
    3.4496   -0.4173   -2.0187 H   0  0  0  0  0  0  0  0  0  0  0  0 
    7.2489   -4.5326   -7.0006 H   0  0  0  0  0  0  0  0  0  0  0  0 
    6.5798   -5.6633   -4.8850 H   0  0  0  0  0  0  0  0  0  0  0  0 
    7.2732   -2.0384   -7.0884 H   0  0  0  0  0  0  0  0  0  0  0  0 
    5.9593   -4.3576   -2.9051 H   0  0  0  0  0  0  0  0  0  0  0  0 
    6.6164   -0.7141   -5.1142 H   0  0  0  0  0  0  0  0  0  0  0  0 
    6.6241   -2.5527   -1.0094 H   0  0  0  0  0  0  0  0  0  0  0  0 
    4.9761   -3.0150   -1.4766 H   0  0  0  0  0  0  0  0  0  0  0  0 
    6.2485   -0.7088   -2.7789 H   0  0  0  0  0  0  0  0  0  0  0  0 
  1 12  1  0  0  0  0 
  1 11  1  0  0  0  0 
  1 10  1  0  0  0  0 
  2  3  1  0  0  0  0 
  3 15  1  0  0  0  0 
  3  5  2  0  0  0  0 
  4  2  2  0  0  0  0 
  4  6  1  0  0  0  0 
  5 17  1  0  0  0  0 
  6  8  2  0  0  0  0 
  7 19  1  0  0  0  0 
  7 10  1  0  0  0  0 
  8  5  1  0  0  0  0 
  8  9  1  0  0  0  0 
  9 21  1  0  0  0  0 
  9  7  1  0  0  0  0 
 13  1  1  0  0  0  0 
 14  2  1  0  0  0  0 
 16  4  1  0  0  0  0 
 18  6  1  0  0  0  0 
 20  7  1  0  0  0  0 
M  END 
>  <HBA> 
2 
 
>  <HBD> 
1 
 
>  <TPSA> 
37.33 
 
>  <cid> 
57406 
 
>  <dipole> 
0.61 
 
>  <excitation_energy_1> 
4.627 
 
>  <excitation_energy_2> 
4.899 
 
>  <excitation_energy_3> 
5.073 
 
>  <excitation_energy_4> 
5.214 
 
>  <homo_energy> 
-5.41 
 
>  <homo_lumo_gap> 
5.548 
 
>  <logP> 
2.492 
 
>  <lumo_energy> 
0.139 
 
>  <melting_point> 
46.17 
 
>  <molecular_refractivity> 
48.15 
 
>  <oscillator_strength_1> 
0.036 
 
>  <oscillator_strength_2> 
0.0037 
 
>  <oscillator_strength_3> 
0.0155 
 
>  <oscillator_strength_4> 
0.0785 
 
>  <open_babel_can_smiles> 
CSCNc1ccccc1 
 
>  <mulliken_charges> 
21 
1   -0.584163 
2   -0.136781 
3   -0.137435 
4   -0.133601 
5   -0.185077 
6   -0.185495 
7   -0.272839 
8   0.347939 
9   -0.648675 
10   0.084842 
11   0.183494 
12   0.179669 
13   0.196854 
14   0.121766 
15   0.125689 
16   0.126147 
17   0.120317 
18   0.117655 
19   0.171922 
20   0.182359 
21   0.325413 
 
>  <lowdin_charges> 
21 
1   -0.545705 
2   -0.187421 
3   -0.142722 
4   -0.14699 
5   -0.21097 
6   -0.194619 
7   -0.300494 
8   0.058044 
9   -0.308675 
10   0.102105 
11   0.176875 
12   0.163584 
13   0.170316 
14   0.156059 
15   0.153844 
16   0.156873 
17   0.156135 
18   0.150387 
19   0.154822 
20   0.16087 
21   0.277682 
 
$$$$ 
 
