PCCDB-ID:  18093 
public computational chemistry database (PCCDB) project, http://pccdb.org 
 
 24 25  0  0  0  0  0  0  0  0999 V2000 
    2.7433    0.7933   -0.0546 C   0  0  0  0  0  0  0  0  0  0  0  0 
    2.7402   -0.5299    0.4540 C   0  0  0  0  0  0  0  0  0  0  0  0 
    1.5621    1.4160   -0.3943 C   0  0  0  0  0  0  0  0  0  0  0  0 
    1.5547   -1.2083    0.6141 C   0  0  0  0  0  0  0  0  0  0  0  0 
   -2.0991    0.6684   -0.4162 C   0  0  0  0  0  0  0  0  0  0  0  0 
   -0.9205    1.3484   -0.5786 C   0  0  0  0  0  0  0  0  0  0  0  0 
   -3.4274   -1.2920    0.2228 C   0  0  0  0  0  0  0  0  0  0  0  0 
   -0.9123   -1.2742    0.4287 C   0  0  0  0  0  0  0  0  0  0  0  0 
   -2.9167   -3.5568    1.1149 C   0  0  0  0  0  0  0  0  0  0  0  0 
   -5.1994   -2.8737    0.6745 C   0  0  0  0  0  0  0  0  0  0  0  0 
   -2.1232   -0.6696    0.0942 C   0  0  0  0  0  0  0  0  0  0  0  0 
   -3.8064   -2.5328    0.6589 C   0  0  0  0  0  0  0  0  0  0  0  0 
    0.3222    0.7450   -0.2418 C   0  0  0  0  0  0  0  0  0  0  0  0 
    0.3165   -0.5942    0.2724 C   0  0  0  0  0  0  0  0  0  0  0  0 
   -2.2056   -4.3998    1.4874 N   0  0  0  0  0  0  0  0  0  0  0  0 
   -6.3311   -3.1443    0.6859 N   0  0  0  0  0  0  0  0  0  0  0  0 
    3.6872    1.3173   -0.1760 H   0  0  0  0  0  0  0  0  0  0  0  0 
    3.6805   -1.0056    0.7173 H   0  0  0  0  0  0  0  0  0  0  0  0 
    1.5658    2.4310   -0.7836 H   0  0  0  0  0  0  0  0  0  0  0  0 
    1.5449   -2.2231    1.0033 H   0  0  0  0  0  0  0  0  0  0  0  0 
   -3.0399    1.1451   -0.6789 H   0  0  0  0  0  0  0  0  0  0  0  0 
   -0.9236    2.3627   -0.9692 H   0  0  0  0  0  0  0  0  0  0  0  0 
   -4.2572   -0.6587   -0.0834 H   0  0  0  0  0  0  0  0  0  0  0  0 
   -0.8868   -2.2853    0.8177 H   0  0  0  0  0  0  0  0  0  0  0  0 
  1  2  2  0  0  0  0 
  2  4  1  0  0  0  0 
  2 18  1  0  0  0  0 
  3 13  2  0  0  0  0 
  3  1  1  0  0  0  0 
  4 20  1  0  0  0  0 
  5 11  1  0  0  0  0 
  6  5  2  0  0  0  0 
  6 13  1  0  0  0  0 
  7 12  2  0  0  0  0 
  8 24  1  0  0  0  0 
  9 15  3  0  0  0  0 
 10 16  3  0  0  0  0 
 11  7  1  0  0  0  0 
 11  8  2  0  0  0  0 
 12 10  1  0  0  0  0 
 12  9  1  0  0  0  0 
 13 14  1  0  0  0  0 
 14  8  1  0  0  0  0 
 14  4  2  0  0  0  0 
 17  1  1  0  0  0  0 
 19  3  1  0  0  0  0 
 21  5  1  0  0  0  0 
 22  6  1  0  0  0  0 
 23  7  1  0  0  0  0 
M  END 
>  <HBA> 
2 
 
>  <HBD> 
0 
 
>  <TPSA> 
47.58 
 
>  <cid> 
18093 
 
>  <dipole> 
7.21 
 
>  <excitation_energy_1> 
3.091 
 
>  <excitation_energy_2> 
3.697 
 
>  <excitation_energy_3> 
4.529 
 
>  <excitation_energy_4> 
4.746 
 
>  <homo_energy> 
-6.46 
 
>  <homo_lumo_gap> 
3.521 
 
>  <logP> 
3.27 
 
>  <lumo_energy> 
-2.939 
 
>  <melting_point> 
142.07 
 
>  <molecular_refractivity> 
63.15 
 
>  <oscillator_strength_1> 
0.1061 
 
>  <oscillator_strength_2> 
0.4898 
 
>  <oscillator_strength_3> 
0.4718 
 
>  <oscillator_strength_4> 
0.0179 
 
>  <open_babel_can_smiles> 
N#CC(=Cc1ccc2c(c1)cccc2)C#N 
 
>  <mulliken_charges> 
24 
1   -0.127336 
2   -0.136011 
3   -0.191276 
4   -0.180623 
5   -0.183902 
6   -0.192963 
7   -0.168163 
8   -0.260311 
9   0.319167 
10   0.284504 
11   0.168922 
12   0.120645 
13   0.145656 
14   0.130522 
15   -0.497244 
16   -0.462992 
17   0.143998 
18   0.144726 
19   0.140983 
20   0.153802 
21   0.144879 
22   0.144452 
23   0.177268 
24   0.181297 
 
>  <lowdin_charges> 
24 
1   -0.14066 
2   -0.152017 
3   -0.153836 
4   -0.140906 
5   -0.15021 
6   -0.149727 
7   -0.070908 
8   -0.127951 
9   0.000534 
10   -0.007652 
11   -0.02282 
12   -0.051998 
13   0.012543 
14   -3.6e-05 
15   -0.102591 
16   -0.100297 
17   0.165469 
18   0.166122 
19   0.162071 
20   0.167933 
21   0.164863 
22   0.164387 
23   0.18497 
24   0.182719 
 
$$$$ 
 
