PCCDB-ID:  20912 
public computational chemistry database (PCCDB) project, http://pccdb.org 
 
 13 12  0  0  0  0  0  0  0  0999 V2000 
    0.7479   -0.1129    0.1349 C   0  0  0  0  0  0  0  0  0  0  0  0 
    2.8819    1.0507    0.7346 C   0  0  0  0  0  0  0  0  0  0  0  0 
    2.8138   -0.7907   -1.0612 C   0  0  0  0  0  0  0  0  0  0  0  0 
    3.4640    0.0145   -2.1053 C   0  0  0  0  0  0  0  0  0  0  0  0 
    2.0595    0.0577   -0.0440 C   0  0  0  0  0  0  0  0  0  0  0  0 
    3.9752    0.6666   -2.9181 N   0  0  0  0  0  0  0  0  0  0  0  0 
    0.1974    0.4662    0.8713 H   0  0  0  0  0  0  0  0  0  0  0  0 
    0.1751   -0.8333   -0.4433 H   0  0  0  0  0  0  0  0  0  0  0  0 
    2.2632    1.6138    1.4386 H   0  0  0  0  0  0  0  0  0  0  0  0 
    3.3777    1.7644    0.0644 H   0  0  0  0  0  0  0  0  0  0  0  0 
    3.6760    0.5470    1.3030 H   0  0  0  0  0  0  0  0  0  0  0  0 
    3.5968   -1.3768   -0.5583 H   0  0  0  0  0  0  0  0  0  0  0  0 
    2.1385   -1.5064   -1.5427 H   0  0  0  0  0  0  0  0  0  0  0  0 
  1  7  1  0  0  0  0 
  2 11  1  0  0  0  0 
  2  9  1  0  0  0  0 
  3 12  1  0  0  0  0 
  3  5  1  0  0  0  0 
  4  3  1  0  0  0  0 
  5  1  2  0  0  0  0 
  5  2  1  0  0  0  0 
  6  4  3  0  0  0  0 
  8  1  1  0  0  0  0 
 10  2  1  0  0  0  0 
 13  3  1  0  0  0  0 
M  END 
>  <HBA> 
1 
 
>  <HBD> 
0 
 
>  <TPSA> 
23.79 
 
>  <cid> 
20912 
 
>  <dipole> 
3.7 
 
>  <excitation_energy_1> 
6.388 
 
>  <excitation_energy_2> 
6.835 
 
>  <excitation_energy_3> 
7.096 
 
>  <excitation_energy_4> 
7.266 
 
>  <homo_energy> 
-7.323 
 
>  <homo_lumo_gap> 
7.29 
 
>  <logP> 
1.476 
 
>  <lumo_energy> 
-0.033 
 
>  <melting_point> 
-9.18 
 
>  <molecular_refractivity> 
25.42 
 
>  <oscillator_strength_1> 
0.0534 
 
>  <oscillator_strength_2> 
0.1939 
 
>  <oscillator_strength_3> 
0.0291 
 
>  <oscillator_strength_4> 
0.0577 
 
>  <open_babel_can_smiles> 
CC(=C)CC#N 
 
>  <mulliken_charges> 
13 
1   -0.386614 
2   -0.515379 
3   -0.411522 
4   0.359469 
5   0.231212 
6   -0.469416 
7   0.147582 
8   0.143063 
9   0.162593 
10   0.183017 
11   0.158163 
12   0.199271 
13   0.19856 
 
>  <lowdin_charges> 
13 
1   -0.346226 
2   -0.446182 
3   -0.271885 
4   -0.015993 
5   0.012045 
6   -0.126998 
7   0.164166 
8   0.160703 
9   0.164529 
10   0.172266 
11   0.160294 
12   0.185835 
13   0.187447 
 
$$$$ 
 
