PCCDB-ID:  20680 
public computational chemistry database (PCCDB) project, http://pccdb.org 
 
 23 22  0  0  0  0  0  0  0  0999 V2000 
    1.4838   -0.2101   -0.5709 C   0  0  0  0  0  0  0  0  0  0  0  0 
    7.0568    0.2822    3.3952 C   0  0  0  0  0  0  0  0  0  0  0  0 
    2.9504    0.1884   -0.3758 C   0  0  0  0  0  0  0  0  0  0  0  0 
    5.5782    0.6207    3.6055 C   0  0  0  0  0  0  0  0  0  0  0  0 
    3.2558    0.6589    1.0516 C   0  0  0  0  0  0  0  0  0  0  0  0 
    4.7269    1.0631    1.2289 C   0  0  0  0  0  0  0  0  0  0  0  0 
    4.8099    2.7754    2.9741 N   0  0  0  0  0  0  0  0  0  0  0  0 
    5.0337    1.5126    2.5873 N   0  0  0  0  0  0  0  0  0  0  0  0 
    4.3375    3.5108    2.1082 O   0  0  0  0  0  0  0  0  0  0  0  0 
    1.2946   -0.5400   -1.5984 H   0  0  0  0  0  0  0  0  0  0  0  0 
    0.8148    0.6332   -0.3620 H   0  0  0  0  0  0  0  0  0  0  0  0 
    1.2027   -1.0307    0.1005 H   0  0  0  0  0  0  0  0  0  0  0  0 
    7.4033   -0.3887    4.1892 H   0  0  0  0  0  0  0  0  0  0  0  0 
    7.6655    1.1916    3.4207 H   0  0  0  0  0  0  0  0  0  0  0  0 
    7.2284   -0.2191    2.4363 H   0  0  0  0  0  0  0  0  0  0  0  0 
    3.2097    0.9879   -1.0835 H   0  0  0  0  0  0  0  0  0  0  0  0 
    3.5978   -0.6643   -0.6271 H   0  0  0  0  0  0  0  0  0  0  0  0 
    5.4371    1.1375    4.5587 H   0  0  0  0  0  0  0  0  0  0  0  0 
    4.9717   -0.2937    3.6288 H   0  0  0  0  0  0  0  0  0  0  0  0 
    3.0066   -0.1388    1.7655 H   0  0  0  0  0  0  0  0  0  0  0  0 
    2.6283    1.5211    1.3043 H   0  0  0  0  0  0  0  0  0  0  0  0 
    4.9689    1.8921    0.5573 H   0  0  0  0  0  0  0  0  0  0  0  0 
    5.3912    0.2235    0.9993 H   0  0  0  0  0  0  0  0  0  0  0  0 
  1  3  1  0  0  0  0 
  1 11  1  0  0  0  0 
  1 12  1  0  0  0  0 
  2 14  1  0  0  0  0 
  2  4  1  0  0  0  0 
  2 13  1  0  0  0  0 
  3  5  1  0  0  0  0 
  4 19  1  0  0  0  0 
  4 18  1  0  0  0  0 
  5  6  1  0  0  0  0 
  5 21  1  0  0  0  0 
  5 20  1  0  0  0  0 
  6  8  1  0  0  0  0 
  8  7  1  0  0  0  0 
  8  4  1  0  0  0  0 
  9  7  2  0  0  0  0 
 10  1  1  0  0  0  0 
 15  2  1  0  0  0  0 
 16  3  1  0  0  0  0 
 17  3  1  0  0  0  0 
 22  6  1  0  0  0  0 
 23  6  1  0  0  0  0 
M  END 
>  <HBA> 
3 
 
>  <HBD> 
0 
 
>  <TPSA> 
32.67 
 
>  <cid> 
20680 
 
>  <dipole> 
4.03 
 
>  <excitation_energy_1> 
3.389 
 
>  <excitation_energy_2> 
5.626 
 
>  <excitation_energy_3> 
5.782 
 
>  <excitation_energy_4> 
5.984 
 
>  <homo_energy> 
-5.913 
 
>  <homo_lumo_gap> 
5.236 
 
>  <logP> 
1.79 
 
>  <lumo_energy> 
-0.678 
 
>  <melting_point> 
-4.88 
 
>  <molecular_refractivity> 
38.59 
 
>  <oscillator_strength_1> 
0.001 
 
>  <oscillator_strength_2> 
0.0148 
 
>  <oscillator_strength_3> 
0.1561 
 
>  <oscillator_strength_4> 
0.0009 
 
>  <open_babel_can_smiles> 
CCCCN(N=O)CC 
 
>  <mulliken_charges> 
23 
1   -0.442267 
2   -0.447844 
3   -0.253237 
4   -0.13844 
5   -0.255017 
6   -0.150278 
7   0.145958 
8   -0.212738 
9   -0.389943 
10   0.145405 
11   0.149454 
12   0.142187 
13   0.154836 
14   0.16777 
15   0.153674 
16   0.141929 
17   0.129289 
18   0.17878 
19   0.153973 
20   0.131203 
21   0.166394 
22   0.181252 
23   0.147659 
 
>  <lowdin_charges> 
23 
1   -0.443513 
2   -0.453428 
3   -0.273365 
4   -0.199776 
5   -0.282319 
6   -0.218474 
7   0.049285 
8   -0.039968 
9   -0.282638 
10   0.150599 
11   0.151215 
12   0.147575 
13   0.159841 
14   0.161386 
15   0.152012 
16   0.145438 
17   0.138491 
18   0.167647 
19   0.149367 
20   0.140293 
21   0.158656 
22   0.169696 
23   0.15198 
 
$$$$ 
 
