PCCDB-ID:  10613 
public computational chemistry database (PCCDB) project, http://pccdb.org 
 
 18 18  0  0  0  0  0  0  0  0999 V2000 
   -1.2159   -0.6807    0.0146 C   0  0  0  0  0  0  0  0  0  0  0  0 
   -1.2174    0.6933   -0.1046 C   0  0  0  0  0  0  0  0  0  0  0  0 
   -0.0102   -1.3903    0.0909 C   0  0  0  0  0  0  0  0  0  0  0  0 
    0.0048    1.3924   -0.1562 C   0  0  0  0  0  0  0  0  0  0  0  0 
    1.2069    0.6844   -0.0697 C   0  0  0  0  0  0  0  0  0  0  0  0 
    1.2395   -0.7144    0.0575 C   0  0  0  0  0  0  0  0  0  0  0  0 
   -0.0696   -2.8256    0.2096 N   0  0  0  0  0  0  0  0  0  0  0  0 
    2.4814    1.4205   -0.1123 N   0  0  0  0  0  0  0  0  0  0  0  0 
    0.0700    2.7331   -0.2564 O   0  0  0  0  0  0  0  0  0  0  0  0 
    2.4191   -1.3210    0.1091 O   0  0  0  0  0  0  0  0  0  0  0  0 
   -1.1635   -3.3766    0.2521 O   0  0  0  0  0  0  0  0  0  0  0  0 
    1.0097   -3.4614    0.2651 O   0  0  0  0  0  0  0  0  0  0  0  0 
    2.7013    2.0894   -1.1169 O   0  0  0  0  0  0  0  0  0  0  0  0 
    3.2194    1.3114    0.8603 O   0  0  0  0  0  0  0  0  0  0  0  0 
   -2.1419   -1.2410    0.0513 H   0  0  0  0  0  0  0  0  0  0  0  0 
   -2.1541    1.2407   -0.1582 H   0  0  0  0  0  0  0  0  0  0  0  0 
   -0.8265    3.1039   -0.2908 H   0  0  0  0  0  0  0  0  0  0  0  0 
    2.2321   -2.2934    0.1764 H   0  0  0  0  0  0  0  0  0  0  0  0 
  1 15  1  0  0  0  0 
  1  3  2  0  0  0  0 
  2  1  1  0  0  0  0 
  3  7  1  0  0  0  0 
  4  2  2  0  0  0  0 
  4  5  1  0  0  0  0 
  5  6  2  0  0  0  0 
  6  3  1  0  0  0  0 
  6 10  1  0  0  0  0 
  7 11  2  0  0  0  0 
  7 12  2  0  0  0  0 
  8  5  1  0  0  0  0 
  8 14  2  0  0  0  0 
  9  4  1  0  0  0  0 
 10 18  1  0  0  0  0 
 13  8  2  0  0  0  0 
 16  2  1  0  0  0  0 
 17  9  1  0  0  0  0 
M  END 
>  <HBA> 
2 
 
>  <HBD> 
2 
 
>  <TPSA> 
132.1 
 
>  <cid> 
10613 
 
>  <dipole> 
5.72 
 
>  <excitation_energy_1> 
3.616 
 
>  <excitation_energy_2> 
3.718 
 
>  <excitation_energy_3> 
3.927 
 
>  <excitation_energy_4> 
4.091 
 
>  <homo_energy> 
-7.374 
 
>  <homo_lumo_gap> 
4.327 
 
>  <logP> 
1.961 
 
>  <lumo_energy> 
-3.048 
 
>  <melting_point> 
163.86 
 
>  <molecular_refractivity> 
48.13 
 
>  <oscillator_strength_1> 
0.0509 
 
>  <oscillator_strength_2> 
0.0016 
 
>  <oscillator_strength_3> 
0.001 
 
>  <oscillator_strength_4> 
0.2387 
 
>  <open_babel_can_smiles> 
O=N(=O)c1ccc(c(c1O)N(=O)=O)O 
 
>  <mulliken_charges> 
18 
1   -0.153545 
2   -0.207088 
3   0.25056 
4   0.376483 
5   0.164633 
6   0.340279 
7   0.387554 
8   0.385036 
9   -0.606913 
10   -0.617572 
11   -0.383982 
12   -0.452682 
13   -0.362589 
14   -0.357916 
15   0.199187 
16   0.15232 
17   0.429072 
18   0.457164 
 
>  <lowdin_charges> 
18 
1   -0.107164 
2   -0.217532 
3   -0.062168 
4   0.140656 
5   -0.046854 
6   0.137966 
7   0.320531 
8   0.312758 
9   -0.325973 
10   -0.324012 
11   -0.226698 
12   -0.284925 
13   -0.218564 
14   -0.213914 
15   0.197053 
16   0.172165 
17   0.372732 
18   0.373943 
 
$$$$ 
 
