PCCDB-ID:  7727 
public computational chemistry database (PCCDB) project, http://pccdb.org 
 
 26 26  0  0  1  0  0  0  0  0999 V2000 
    0.9832   -0.2791    0.1404 C   0  0  0  0  0  0  0  0  0  0  0  0 
    4.7193    4.7400   -2.4527 C   0  0  0  0  0  0  0  0  0  0  0  0 
    2.4969   -0.0437    0.0654 C   0  0  0  0  0  0  0  0  0  0  0  0 
    4.9200    2.2506   -1.9770 C   0  0  0  0  0  0  0  0  0  0  0  0 
    4.4635    1.0994   -1.0690 C   0  0  0  0  0  0  0  0  0  0  0  0 
    2.4486    2.4607   -0.4703 C   0  0  0  0  0  0  0  0  0  0  0  0 
    4.3499    3.5970   -1.5078 C   0  0  2  0  0  0  0  0  0  0  0  0 
    2.9328    1.0681   -0.9047 C   0  0  2  0  0  0  0  0  0  0  0  0 
    2.8900    3.4751   -1.4291 N   0  0  0  0  0  0  0  0  0  0  0  0 
    0.7502   -1.1184    0.8058 H   0  0  0  0  0  0  0  0  0  0  0  0 
    0.5706   -0.5147   -0.8484 H   0  0  0  0  0  0  0  0  0  0  0  0 
    0.4478    0.5976    0.5218 H   0  0  0  0  0  0  0  0  0  0  0  0 
    5.8072    4.8431   -2.5341 H   0  0  0  0  0  0  0  0  0  0  0  0 
    4.3201    5.6973   -2.0935 H   0  0  0  0  0  0  0  0  0  0  0  0 
    4.3091    4.5566   -3.4520 H   0  0  0  0  0  0  0  0  0  0  0  0 
    2.9859   -0.9789   -0.2414 H   0  0  0  0  0  0  0  0  0  0  0  0 
    2.8836    0.1826    1.0702 H   0  0  0  0  0  0  0  0  0  0  0  0 
    4.5778    2.0704   -3.0052 H   0  0  0  0  0  0  0  0  0  0  0  0 
    6.0162    2.3049   -2.0016 H   0  0  0  0  0  0  0  0  0  0  0  0 
    4.9251    1.2154   -0.0760 H   0  0  0  0  0  0  0  0  0  0  0  0 
    4.8186    0.1389   -1.4656 H   0  0  0  0  0  0  0  0  0  0  0  0 
    2.8207    2.6546    0.5579 H   0  0  0  0  0  0  0  0  0  0  0  0 
    1.3542    2.4919   -0.4270 H   0  0  0  0  0  0  0  0  0  0  0  0 
    4.7877    3.8134   -0.5099 H   0  0  0  0  0  0  0  0  0  0  0  0 
    2.4888    0.8671   -1.8914 H   0  0  0  0  0  0  0  0  0  0  0  0 
    2.4900    4.3773   -1.1764 H   0  0  0  0  0  0  0  0  0  0  0  0 
  1 12  1  0  0  0  0 
  1 10  1  0  0  0  0 
  2 14  1  0  0  0  0 
  2  7  1  0  0  0  0 
  3  1  1  0  0  0  0 
  3 17  1  0  0  0  0 
  4  7  1  0  0  0  0 
  4  5  1  0  0  0  0 
  5  8  1  0  0  0  0 
  5 20  1  0  0  0  0 
  6 23  1  0  0  0  0 
  6 22  1  0  0  0  0 
  7  9  1  0  0  0  0 
  7 24  1  1  0  0  0 
  8 25  1  6  0  0  0 
  8  6  1  0  0  0  0 
  8  3  1  0  0  0  0 
  9 26  1  0  0  0  0 
  9  6  1  0  0  0  0 
 11  1  1  0  0  0  0 
 13  2  1  0  0  0  0 
 15  2  1  0  0  0  0 
 16  3  1  0  0  0  0 
 18  4  1  0  0  0  0 
 19  4  1  0  0  0  0 
 21  5  1  0  0  0  0 
M  END 
>  <HBA> 
1 
 
>  <HBD> 
1 
 
>  <TPSA> 
12.03 
 
>  <cid> 
7727 
 
>  <dipole> 
0.78 
 
>  <excitation_energy_1> 
5.343 
 
>  <excitation_energy_2> 
5.851 
 
>  <excitation_energy_3> 
5.966 
 
>  <excitation_energy_4> 
6.009 
 
>  <homo_energy> 
-5.837 
 
>  <homo_lumo_gap> 
8.161 
 
>  <logP> 
2.113 
 
>  <lumo_energy> 
2.324 
 
>  <melting_point> 
21.87 
 
>  <molecular_refractivity> 
45.17 
 
>  <oscillator_strength_1> 
0.0052 
 
>  <oscillator_strength_2> 
0.0014 
 
>  <oscillator_strength_3> 
0.0548 
 
>  <oscillator_strength_4> 
0.0295 
 
>  <open_babel_can_smiles> 
CC[C@@H]1CC[C@H](NC1)C 
 
>  <mulliken_charges> 
26 
1   -0.44925 
2   -0.453084 
3   -0.252891 
4   -0.246506 
5   -0.275278 
6   -0.127674 
7   0.058583 
8   -0.063586 
9   -0.561419 
10   0.141619 
11   0.143515 
12   0.144941 
13   0.141464 
14   0.133047 
15   0.154171 
16   0.129662 
17   0.126706 
18   0.134796 
19   0.12409 
20   0.122979 
21   0.128798 
22   0.101536 
23   0.133926 
24   0.095119 
25   0.125546 
26   0.289192 
 
>  <lowdin_charges> 
26 
1   -0.447942 
2   -0.444033 
3   -0.272473 
4   -0.277277 
5   -0.27872 
6   -0.202963 
7   -0.059389 
8   -0.132447 
9   -0.366343 
10   0.150454 
11   0.147053 
12   0.147093 
13   0.149227 
14   0.144542 
15   0.153675 
16   0.14181 
17   0.137124 
18   0.142698 
19   0.139985 
20   0.13522 
21   0.142276 
22   0.110323 
23   0.141301 
24   0.108656 
25   0.138843 
26   0.251306 
 
$$$$ 
 
