PCCDB-ID:  70456 
public computational chemistry database (PCCDB) project, http://pccdb.org 
 
 39 38  0  0  0  0  0  0  0  0999 V2000 
    0.2972    1.6638    0.0965 C   0  0  0  0  0  0  0  0  0  0  0  0 
   11.7617    3.5202   -3.0602 C   0  0  0  0  0  0  0  0  0  0  0  0 
    8.8077    3.0010   -6.3827 C   0  0  0  0  0  0  0  0  0  0  0  0 
    1.7853    1.3007    0.1225 C   0  0  0  0  0  0  0  0  0  0  0  0 
   10.9524    2.5454   -3.9202 C   0  0  0  0  0  0  0  0  0  0  0  0 
    9.0880    3.7516   -5.0750 C   0  0  0  0  0  0  0  0  0  0  0  0 
    2.6030    2.0161   -0.9607 C   0  0  0  0  0  0  0  0  0  0  0  0 
    4.0942    1.6573   -0.9401 C   0  0  0  0  0  0  0  0  0  0  0  0 
    4.9153    2.3786   -2.0170 C   0  0  0  0  0  0  0  0  0  0  0  0 
    6.4041    2.0136   -1.9843 C   0  0  0  0  0  0  0  0  0  0  0  0 
    7.2191    2.7509   -3.0508 C   0  0  0  0  0  0  0  0  0  0  0  0 
    8.7083    2.3934   -2.9914 C   0  0  0  0  0  0  0  0  0  0  0  0 
    9.5261    2.8855   -3.9815 N   0  0  0  0  0  0  0  0  0  0  0  0 
    9.1572    1.6929   -2.0863 O   0  0  0  0  0  0  0  0  0  0  0  0 
   -0.2575    1.1391    0.8829 H   0  0  0  0  0  0  0  0  0  0  0  0 
   -0.1589    1.3993   -0.8656 H   0  0  0  0  0  0  0  0  0  0  0  0 
    0.1492    2.7404    0.2466 H   0  0  0  0  0  0  0  0  0  0  0  0 
   12.8219    3.2409   -3.0599 H   0  0  0  0  0  0  0  0  0  0  0  0 
   11.3994    3.4967   -2.0285 H   0  0  0  0  0  0  0  0  0  0  0  0 
   11.6833    4.5481   -3.4341 H   0  0  0  0  0  0  0  0  0  0  0  0 
    8.5286    3.7048   -7.1756 H   0  0  0  0  0  0  0  0  0  0  0  0 
    7.9900    2.2830   -6.2578 H   0  0  0  0  0  0  0  0  0  0  0  0 
    9.6910    2.4472   -6.7190 H   0  0  0  0  0  0  0  0  0  0  0  0 
    1.8996    0.2138    0.0033 H   0  0  0  0  0  0  0  0  0  0  0  0 
    2.2043    1.5424    1.1098 H   0  0  0  0  0  0  0  0  0  0  0  0 
   11.0352    1.5359   -3.5126 H   0  0  0  0  0  0  0  0  0  0  0  0 
   11.3369    2.5278   -4.9465 H   0  0  0  0  0  0  0  0  0  0  0  0 
    8.2000    4.3072   -4.7651 H   0  0  0  0  0  0  0  0  0  0  0  0 
    9.8717    4.5017   -5.2405 H   0  0  0  0  0  0  0  0  0  0  0  0 
    2.4885    3.1041   -0.8408 H   0  0  0  0  0  0  0  0  0  0  0  0 
    2.1834    1.7755   -1.9492 H   0  0  0  0  0  0  0  0  0  0  0  0 
    4.2088    0.5704   -1.0647 H   0  0  0  0  0  0  0  0  0  0  0  0 
    4.5113    1.8931    0.0500 H   0  0  0  0  0  0  0  0  0  0  0  0 
    4.7998    3.4661   -1.8910 H   0  0  0  0  0  0  0  0  0  0  0  0 
    4.4979    2.1441   -3.0082 H   0  0  0  0  0  0  0  0  0  0  0  0 
    6.5290    0.9323   -2.1202 H   0  0  0  0  0  0  0  0  0  0  0  0 
    6.8264    2.2371   -0.9980 H   0  0  0  0  0  0  0  0  0  0  0  0 
    7.1075    3.8371   -2.9153 H   0  0  0  0  0  0  0  0  0  0  0  0 
    6.8197    2.5330   -4.0506 H   0  0  0  0  0  0  0  0  0  0  0  0 
  1  4  1  0  0  0  0 
  1 17  1  0  0  0  0 
  1 15  1  0  0  0  0 
  2 18  1  0  0  0  0 
  2 19  1  0  0  0  0 
  3 22  1  0  0  0  0 
  3  6  1  0  0  0  0 
  4 25  1  0  0  0  0 
  5 26  1  0  0  0  0 
  5  2  1  0  0  0  0 
  6 28  1  0  0  0  0 
  6 13  1  0  0  0  0 
  7  8  1  0  0  0  0 
  7 30  1  0  0  0  0 
  7  4  1  0  0  0  0 
  8 33  1  0  0  0  0 
  9 10  1  0  0  0  0 
  9 34  1  0  0  0  0 
  9  8  1  0  0  0  0 
 10 37  1  0  0  0  0 
 11 12  1  0  0  0  0 
 11 38  1  0  0  0  0 
 11 10  1  0  0  0  0 
 12 14  2  0  0  0  0 
 13  5  1  0  0  0  0 
 13 12  1  0  0  0  0 
 16  1  1  0  0  0  0 
 20  2  1  0  0  0  0 
 21  3  1  0  0  0  0 
 23  3  1  0  0  0  0 
 24  4  1  0  0  0  0 
 27  5  1  0  0  0  0 
 29  6  1  0  0  0  0 
 31  7  1  0  0  0  0 
 32  8  1  0  0  0  0 
 35  9  1  0  0  0  0 
 36 10  1  0  0  0  0 
 39 11  1  0  0  0  0 
M  END 
>  <HBA> 
2 
 
>  <HBD> 
0 
 
>  <TPSA> 
20.31 
 
>  <cid> 
70456 
 
>  <dipole> 
3.4 
 
>  <excitation_energy_1> 
5.576 
 
>  <excitation_energy_2> 
5.649 
 
>  <excitation_energy_3> 
6.003 
 
>  <excitation_energy_4> 
6.11 
 
>  <homo_energy> 
-6.248 
 
>  <homo_lumo_gap> 
7.238 
 
>  <logP> 
3.215 
 
>  <lumo_energy> 
0.991 
 
>  <melting_point> 
-6.52 
 
>  <molecular_refractivity> 
62.89 
 
>  <oscillator_strength_1> 
0.0023 
 
>  <oscillator_strength_2> 
0.0148 
 
>  <oscillator_strength_3> 
0.0119 
 
>  <oscillator_strength_4> 
0.047 
 
>  <open_babel_can_smiles> 
CCCCCCCC(=O)N(CC)CC 
 
>  <mulliken_charges> 
39 
1   -0.441136 
2   -0.444517 
3   -0.442208 
4   -0.246347 
5   -0.142243 
6   -0.151006 
7   -0.245272 
8   -0.252255 
9   -0.257752 
10   -0.242114 
11   -0.383597 
12   0.605307 
13   -0.413375 
14   -0.529186 
15   0.14115 
16   0.140167 
17   0.140271 
18   0.143864 
19   0.175635 
20   0.138492 
21   0.147318 
22   0.156529 
23   0.155947 
24   0.130326 
25   0.130539 
26   0.180543 
27   0.135072 
28   0.158395 
29   0.15177 
30   0.124676 
31   0.124503 
32   0.129184 
33   0.129811 
34   0.122549 
35   0.122226 
36   0.145403 
37   0.152686 
38   0.156753 
39   0.151892 
 
>  <lowdin_charges> 
39 
1   -0.44399 
2   -0.448132 
3   -0.456028 
4   -0.269445 
5   -0.19248 
6   -0.198046 
7   -0.272023 
8   -0.271222 
9   -0.272987 
10   -0.266535 
11   -0.305543 
12   0.158036 
13   -0.11067 
14   -0.321039 
15   0.150044 
16   0.145517 
17   0.143968 
18   0.151164 
19   0.163405 
20   0.143518 
21   0.154909 
22   0.153853 
23   0.154459 
24   0.136854 
25   0.138531 
26   0.16769 
27   0.140731 
28   0.156069 
29   0.149707 
30   0.134205 
31   0.1357 
32   0.136908 
33   0.138761 
34   0.132873 
35   0.134118 
36   0.147654 
37   0.152784 
38   0.154153 
39   0.152528 
 
$$$$ 
 
