PCCDB-ID:  27938 
public computational chemistry database (PCCDB) project, http://pccdb.org 
 
 30 30  0  0  1  0  0  0  0  0999 V2000 
    3.2656   -1.2501    0.4933 C   0  0  0  0  0  0  0  0  0  0  0  0 
    0.9603   -0.2572    0.2309 C   0  0  0  0  0  0  0  0  0  0  0  0 
    3.4318    3.3607    3.5778 C   0  0  0  0  0  0  0  0  0  0  0  0 
    3.1596    3.7773   -0.3019 C   0  0  0  0  0  0  0  0  0  0  0  0 
    3.0379    4.1306    1.1871 C   0  0  0  0  0  0  0  0  0  0  0  0 
    2.4936    2.4299   -0.6192 C   0  0  0  0  0  0  0  0  0  0  0  0 
    2.8956    1.6714    1.7546 C   0  0  0  0  0  0  0  0  0  0  0  0 
    2.4514   -0.0930   -0.1090 C   0  0  0  0  0  0  0  0  0  0  0  0 
    3.5798    3.0105    2.0926 C   0  0  2  0  0  0  0  0  0  0  0  0 
    3.0427    1.2942    0.2669 C   0  0  1  0  0  0  0  0  0  0  0  0 
    2.8994   -2.2163    0.1258 H   0  0  0  0  0  0  0  0  0  0  0  0 
    3.1948   -1.2707    1.5875 H   0  0  0  0  0  0  0  0  0  0  0  0 
    4.3272   -1.1729    0.2285 H   0  0  0  0  0  0  0  0  0  0  0  0 
    0.5841   -1.2115   -0.1567 H   0  0  0  0  0  0  0  0  0  0  0  0 
    0.3460    0.5386   -0.2043 H   0  0  0  0  0  0  0  0  0  0  0  0 
    0.7911   -0.2574    1.3142 H   0  0  0  0  0  0  0  0  0  0  0  0 
    3.9484    4.2976    3.8197 H   0  0  0  0  0  0  0  0  0  0  0  0 
    3.8481    2.5730    4.2175 H   0  0  0  0  0  0  0  0  0  0  0  0 
    2.3752    3.4850    3.8488 H   0  0  0  0  0  0  0  0  0  0  0  0 
    4.2234    3.7299   -0.5780 H   0  0  0  0  0  0  0  0  0  0  0  0 
    2.7155    4.5715   -0.9161 H   0  0  0  0  0  0  0  0  0  0  0  0 
    1.9790    4.3049    1.4346 H   0  0  0  0  0  0  0  0  0  0  0  0 
    3.5638    5.0715    1.3990 H   0  0  0  0  0  0  0  0  0  0  0  0 
    2.6418    2.1782   -1.6783 H   0  0  0  0  0  0  0  0  0  0  0  0 
    1.4083    2.5256   -0.4709 H   0  0  0  0  0  0  0  0  0  0  0  0 
    1.8286    1.7493    2.0122 H   0  0  0  0  0  0  0  0  0  0  0  0 
    3.3115    0.8813    2.3936 H   0  0  0  0  0  0  0  0  0  0  0  0 
    2.5452   -0.1723   -1.2034 H   0  0  0  0  0  0  0  0  0  0  0  0 
    4.6546    2.8983    1.8756 H   0  0  0  0  0  0  0  0  0  0  0  0 
    4.1237    1.2284    0.0575 H   0  0  0  0  0  0  0  0  0  0  0  0 
  1 12  1  0  0  0  0 
  2 16  1  0  0  0  0 
  3 17  1  0  0  0  0 
  3 19  1  0  0  0  0 
  3 18  1  0  0  0  0 
  4  5  1  0  0  0  0 
  5 23  1  0  0  0  0 
  5 22  1  0  0  0  0 
  5  9  1  0  0  0  0 
  6 25  1  0  0  0  0 
  6  4  1  0  0  0  0 
  6 10  1  0  0  0  0 
  7 26  1  0  0  0  0 
  7  9  1  0  0  0  0 
  7 27  1  0  0  0  0 
  8  2  1  0  0  0  0 
  8 10  1  0  0  0  0 
  8  1  1  0  0  0  0 
  9 29  1  6  0  0  0 
  9  3  1  0  0  0  0 
 10 30  1  6  0  0  0 
 10  7  1  0  0  0  0 
 11  1  1  0  0  0  0 
 13  1  1  0  0  0  0 
 14  2  1  0  0  0  0 
 15  2  1  0  0  0  0 
 20  4  1  0  0  0  0 
 21  4  1  0  0  0  0 
 24  6  1  0  0  0  0 
 28  8  1  0  0  0  0 
M  END 
>  <HBA> 
0 
 
>  <HBD> 
0 
 
>  <TPSA> 
0.0 
 
>  <cid> 
27938 
 
>  <dipole> 
0.12 
 
>  <excitation_energy_1> 
7.142 
 
>  <excitation_energy_2> 
7.252 
 
>  <excitation_energy_3> 
7.503 
 
>  <excitation_energy_4> 
7.512 
 
>  <homo_energy> 
-7.652 
 
>  <homo_lumo_gap> 
9.889 
 
>  <logP> 
3.469 
 
>  <lumo_energy> 
2.237 
 
>  <melting_point> 
-6.64 
 
>  <molecular_refractivity> 
48.07 
 
>  <oscillator_strength_1> 
0.0011 
 
>  <oscillator_strength_2> 
0.0182 
 
>  <oscillator_strength_3> 
0.0274 
 
>  <oscillator_strength_4> 
0.0019 
 
>  <open_babel_can_smiles> 
C[C@@H]1CCC[C@@H](C1)C(C)C 
 
>  <mulliken_charges> 
30 
1   -0.44957 
2   -0.452809 
3   -0.444951 
4   -0.263857 
5   -0.251998 
6   -0.266079 
7   -0.265818 
8   -0.066093 
9   -0.073055 
10   -0.071815 
11   0.138605 
12   0.142221 
13   0.137973 
14   0.138643 
15   0.143273 
16   0.143197 
17   0.138378 
18   0.138154 
19   0.137497 
20   0.126311 
21   0.128048 
22   0.122528 
23   0.125595 
24   0.125008 
25   0.127505 
26   0.125148 
27   0.127028 
28   0.116505 
29   0.115378 
30   0.109049 
 
>  <lowdin_charges> 
30 
1   -0.442547 
2   -0.448679 
3   -0.443729 
4   -0.277017 
5   -0.276713 
6   -0.27625 
7   -0.28117 
8   -0.118624 
9   -0.12241 
10   -0.128096 
11   0.147463 
12   0.143393 
13   0.144645 
14   0.148412 
15   0.148809 
16   0.144771 
17   0.147275 
18   0.148017 
19   0.143534 
20   0.135215 
21   0.143562 
22   0.134041 
23   0.140947 
24   0.138973 
25   0.134933 
26   0.135718 
27   0.142095 
28   0.132935 
29   0.130324 
30   0.130175 
 
$$$$ 
 
