PCCDB-ID:  30720 
public computational chemistry database (PCCDB) project, http://pccdb.org 
 
 31 30  0  0  0  0  0  0  0  0999 V2000 
    2.1195    0.5718   -1.4771 C   0  0  0  0  0  0  0  0  0  0  0  0 
    4.9550    3.0217    3.7597 C   0  0  0  0  0  0  0  0  0  0  0  0 
   -1.5281    0.2687    5.1535 C   0  0  0  0  0  0  0  0  0  0  0  0 
    1.8690   -0.1210   -0.1391 C   0  0  0  0  0  0  0  0  0  0  0  0 
    4.5951    1.7333    4.4824 C   0  0  0  0  0  0  0  0  0  0  0  0 
   -1.1219   -0.9195    4.2964 C   0  0  0  0  0  0  0  0  0  0  0  0 
    2.1783    0.7588    1.0584 C   0  0  0  0  0  0  0  0  0  0  0  0 
    1.9274    0.1364    2.4554 C   0  0  0  0  0  0  0  0  0  0  0  0 
    2.5291    1.0373    3.5333 C   0  0  0  0  0  0  0  0  0  0  0  0 
    0.4325   -0.0474    2.7181 C   0  0  0  0  0  0  0  0  0  0  0  0 
    2.6220    1.8828    0.9574 O   0  0  0  0  0  0  0  0  0  0  0  0 
    1.8964    1.8190    4.2052 O   0  0  0  0  0  0  0  0  0  0  0  0 
   -0.4511    0.3938    2.0169 O   0  0  0  0  0  0  0  0  0  0  0  0 
    3.8564    0.8402    3.6076 O   0  0  0  0  0  0  0  0  0  0  0  0 
    0.2470   -0.7751    3.8309 O   0  0  0  0  0  0  0  0  0  0  0  0 
    1.8907   -0.1053   -2.3064 H   0  0  0  0  0  0  0  0  0  0  0  0 
    3.1617    0.8919   -1.5666 H   0  0  0  0  0  0  0  0  0  0  0  0 
    1.4925    1.4628   -1.5756 H   0  0  0  0  0  0  0  0  0  0  0  0 
    5.5507    3.6625    4.4202 H   0  0  0  0  0  0  0  0  0  0  0  0 
    4.0522    3.5652    3.4691 H   0  0  0  0  0  0  0  0  0  0  0  0 
    5.5397    2.8125    2.8586 H   0  0  0  0  0  0  0  0  0  0  0  0 
   -2.5344    0.1066    5.5566 H   0  0  0  0  0  0  0  0  0  0  0  0 
   -1.5357    1.1877    4.5612 H   0  0  0  0  0  0  0  0  0  0  0  0 
   -0.8339    0.3994    5.9890 H   0  0  0  0  0  0  0  0  0  0  0  0 
    2.4751   -1.0352   -0.0454 H   0  0  0  0  0  0  0  0  0  0  0  0 
    0.8246   -0.4455   -0.0490 H   0  0  0  0  0  0  0  0  0  0  0  0 
    3.9919    1.9264    5.3726 H   0  0  0  0  0  0  0  0  0  0  0  0 
    5.4831    1.1611    4.7612 H   0  0  0  0  0  0  0  0  0  0  0  0 
   -1.7756   -1.0338    3.4286 H   0  0  0  0  0  0  0  0  0  0  0  0 
   -1.1106   -1.8494    4.8697 H   0  0  0  0  0  0  0  0  0  0  0  0 
    2.4146   -0.8447    2.5026 H   0  0  0  0  0  0  0  0  0  0  0  0 
  1  4  1  0  0  0  0 
  2 19  1  0  0  0  0 
  2  5  1  0  0  0  0 
  3 22  1  0  0  0  0 
  3 24  1  0  0  0  0 
  4 26  1  0  0  0  0 
  4 25  1  0  0  0  0 
  4  7  1  0  0  0  0 
  5 28  1  0  0  0  0 
  5 27  1  0  0  0  0 
  6 30  1  0  0  0  0 
  6  3  1  0  0  0  0 
  7  8  1  0  0  0  0 
  8 31  1  0  0  0  0 
  8 10  1  0  0  0  0 
  8  9  1  0  0  0  0 
  9 14  1  0  0  0  0 
  9 12  2  0  0  0  0 
 10 15  1  0  0  0  0 
 11  7  2  0  0  0  0 
 13 10  2  0  0  0  0 
 14  5  1  0  0  0  0 
 15  6  1  0  0  0  0 
 16  1  1  0  0  0  0 
 17  1  1  0  0  0  0 
 18  1  1  0  0  0  0 
 20  2  1  0  0  0  0 
 21  2  1  0  0  0  0 
 23  3  1  0  0  0  0 
 29  6  1  0  0  0  0 
M  END 
>  <HBA> 
5 
 
>  <HBD> 
0 
 
>  <TPSA> 
69.67 
 
>  <cid> 
30720 
 
>  <dipole> 
3.46 
 
>  <excitation_energy_1> 
4.467 
 
>  <excitation_energy_2> 
5.729 
 
>  <excitation_energy_3> 
5.738 
 
>  <excitation_energy_4> 
5.86 
 
>  <homo_energy> 
-7.018 
 
>  <homo_lumo_gap> 
6.368 
 
>  <logP> 
0.708 
 
>  <lumo_energy> 
-0.65 
 
>  <melting_point> 
17.05 
 
>  <molecular_refractivity> 
52.95 
 
>  <oscillator_strength_1> 
0.0003 
 
>  <oscillator_strength_2> 
0.0048 
 
>  <oscillator_strength_3> 
0.0028 
 
>  <oscillator_strength_4> 
0.001 
 
>  <open_babel_can_smiles> 
CCOC(=O)C(C(=O)OCC)C(=O)CC 
 
>  <mulliken_charges> 
31 
1   -0.437926 
2   -0.457978 
3   -0.458418 
4   -0.359717 
5   -0.052702 
6   -0.053759 
7   0.494216 
8   -0.384112 
9   0.671019 
10   0.65666 
11   -0.429572 
12   -0.469668 
13   -0.472083 
14   -0.46247 
15   -0.455966 
16   0.143261 
17   0.160583 
18   0.16909 
19   0.14735 
20   0.187724 
21   0.163038 
22   0.148802 
23   0.185806 
24   0.167471 
25   0.157989 
26   0.190048 
27   0.173313 
28   0.153634 
29   0.173034 
30   0.155671 
31   0.195663 
 
>  <lowdin_charges> 
31 
1   -0.438474 
2   -0.454869 
3   -0.452318 
4   -0.307156 
5   -0.128328 
6   -0.126244 
7   0.179191 
8   -0.208876 
9   0.212568 
10   0.208512 
11   -0.212903 
12   -0.253855 
13   -0.257269 
14   -0.186007 
15   -0.183916 
16   0.15315 
17   0.157301 
18   0.163307 
19   0.158966 
20   0.172203 
21   0.160067 
22   0.157827 
23   0.170961 
24   0.162585 
25   0.160559 
26   0.175847 
27   0.160288 
28   0.153713 
29   0.160367 
30   0.154145 
31   0.188657 
 
$$$$ 
 
