PCCDB-ID:  11445 
public computational chemistry database (PCCDB) project, http://pccdb.org 
 
 30 31  0  0  0  0  0  0  0  0999 V2000 
    5.0229    0.7828   -1.5077 C   0  0  0  0  0  0  0  0  0  0  0  0 
    0.3839    5.1684    1.1073 C   0  0  0  0  0  0  0  0  0  0  0  0 
    5.6441    0.5507    2.2529 C   0  0  0  0  0  0  0  0  0  0  0  0 
   -0.3093    5.3194   -2.6448 C   0  0  0  0  0  0  0  0  0  0  0  0 
    4.6803    1.4255    2.7654 C   0  0  0  0  0  0  0  0  0  0  0  0 
    0.6251    4.4114   -3.1540 C   0  0  0  0  0  0  0  0  0  0  0  0 
    5.7444    0.3526    0.8762 C   0  0  0  0  0  0  0  0  0  0  0  0 
   -0.3771    5.5542   -1.2719 C   0  0  0  0  0  0  0  0  0  0  0  0 
    3.8274    2.0940    1.8973 C   0  0  0  0  0  0  0  0  0  0  0  0 
    1.4819    3.7474   -2.2864 C   0  0  0  0  0  0  0  0  0  0  0  0 
    4.8970    1.0131   -0.0206 C   0  0  0  0  0  0  0  0  0  0  0  0 
    0.4744    4.8982   -0.3756 C   0  0  0  0  0  0  0  0  0  0  0  0 
    3.9287    1.8957    0.5093 C   0  0  0  0  0  0  0  0  0  0  0  0 
    1.4139    3.9831   -0.9023 C   0  0  0  0  0  0  0  0  0  0  0  0 
    3.0950    2.5393   -0.4386 N   0  0  0  0  0  0  0  0  0  0  0  0 
    2.2511    3.3433    0.0453 N   0  0  0  0  0  0  0  0  0  0  0  0 
    5.8217    0.0648   -1.7189 H   0  0  0  0  0  0  0  0  0  0  0  0 
    5.2481    1.7127   -2.0407 H   0  0  0  0  0  0  0  0  0  0  0  0 
    4.0913    0.3959   -1.9340 H   0  0  0  0  0  0  0  0  0  0  0  0 
   -0.3947    5.9090    1.3160 H   0  0  0  0  0  0  0  0  0  0  0  0 
    1.3320    5.5446    1.5057 H   0  0  0  0  0  0  0  0  0  0  0  0 
    0.1489    4.2571    1.6676 H   0  0  0  0  0  0  0  0  0  0  0  0 
    6.3160    0.0237    2.9253 H   0  0  0  0  0  0  0  0  0  0  0  0 
   -0.9847    5.8425   -3.3167 H   0  0  0  0  0  0  0  0  0  0  0  0 
    4.5974    1.5818    3.8377 H   0  0  0  0  0  0  0  0  0  0  0  0 
    0.6814    4.2252   -4.2231 H   0  0  0  0  0  0  0  0  0  0  0  0 
    6.4953   -0.3293    0.4846 H   0  0  0  0  0  0  0  0  0  0  0  0 
   -1.1055    6.2615   -0.8828 H   0  0  0  0  0  0  0  0  0  0  0  0 
    3.0708    2.7778    2.2651 H   0  0  0  0  0  0  0  0  0  0  0  0 
    2.2157    3.0377   -2.6517 H   0  0  0  0  0  0  0  0  0  0  0  0 
  1 11  1  0  0  0  0 
  2 20  1  0  0  0  0 
  2 21  1  0  0  0  0 
  2 22  1  0  0  0  0 
  3  5  1  0  0  0  0 
  3 23  1  0  0  0  0 
  4  8  1  0  0  0  0 
  5 25  1  0  0  0  0 
  6  4  2  0  0  0  0 
  6 10  1  0  0  0  0 
  7  3  2  0  0  0  0 
  8 28  1  0  0  0  0 
  8 12  2  0  0  0  0 
  9 29  1  0  0  0  0 
  9  5  2  0  0  0  0 
 10 14  2  0  0  0  0 
 11 13  2  0  0  0  0 
 11  7  1  0  0  0  0 
 12  2  1  0  0  0  0 
 13  9  1  0  0  0  0 
 14 12  1  0  0  0  0 
 14 16  1  0  0  0  0 
 15 16  2  0  0  0  0 
 15 13  1  0  0  0  0 
 17  1  1  0  0  0  0 
 18  1  1  0  0  0  0 
 19  1  1  0  0  0  0 
 24  4  1  0  0  0  0 
 26  6  1  0  0  0  0 
 27  7  1  0  0  0  0 
 30 10  1  0  0  0  0 
M  END 
>  <HBA> 
2 
 
>  <HBD> 
0 
 
>  <TPSA> 
24.72 
 
>  <cid> 
11445 
 
>  <dipole> 
0.0 
 
>  <excitation_energy_1> 
2.443 
 
>  <excitation_energy_2> 
3.43 
 
>  <excitation_energy_3> 
3.753 
 
>  <excitation_energy_4> 
3.777 
 
>  <homo_energy> 
-5.973 
 
>  <homo_lumo_gap> 
3.785 
 
>  <logP> 
4.719 
 
>  <lumo_energy> 
-2.188 
 
>  <melting_point> 
70.49 
 
>  <molecular_refractivity> 
66.99 
 
>  <oscillator_strength_1> 
0.0001 
 
>  <oscillator_strength_2> 
0.6963 
 
>  <oscillator_strength_3> 
0.0 
 
>  <oscillator_strength_4> 
0.0386 
 
>  <open_babel_can_smiles> 
Cc1ccccc1/N=N/c1ccccc1C 
 
>  <mulliken_charges> 
30 
1   -0.515125 
2   -0.515099 
3   -0.111311 
4   -0.111318 
5   -0.149734 
6   -0.14969 
7   -0.197308 
8   -0.197348 
9   -0.125427 
10   -0.12546 
11   0.157775 
12   0.157852 
13   0.218979 
14   0.218939 
15   -0.31134 
16   -0.311406 
17   0.145967 
18   0.170704 
19   0.170909 
20   0.145965 
21   0.171008 
22   0.170583 
23   0.132122 
24   0.132119 
25   0.1328 
26   0.132796 
27   0.126337 
28   0.126351 
29   0.154671 
30   0.154692 
 
>  <lowdin_charges> 
30 
1   -0.441762 
2   -0.441752 
3   -0.146029 
4   -0.145999 
5   -0.158328 
6   -0.15838 
7   -0.170089 
8   -0.170112 
9   -0.149269 
10   -0.149278 
11   0.011369 
12   0.011389 
13   -0.000786 
14   -0.000793 
15   -0.080869 
16   -0.080893 
17   0.153093 
18   0.167101 
19   0.167235 
20   0.153107 
21   0.167188 
22   0.167126 
23   0.160811 
24   0.160799 
25   0.156948 
26   0.156998 
27   0.157442 
28   0.157453 
29   0.173133 
30   0.173148 
 
$$$$ 
 
