PCCDB-ID:  40066 
public computational chemistry database (PCCDB) project, http://pccdb.org 
 
 20 21  0  0  0  0  0  0  0  0999 V2000 
   -2.4470   -0.6841    0.0826 C   0  0  0  0  0  0  0  0  0  0  0  0 
   -2.4050    0.7131   -0.0011 C   0  0  0  0  0  0  0  0  0  0  0  0 
   -1.2583   -1.4054    0.0703 C   0  0  0  0  0  0  0  0  0  0  0  0 
   -1.1883    1.3889   -0.0837 C   0  0  0  0  0  0  0  0  0  0  0  0 
    1.2503   -1.4411   -0.0907 C   0  0  0  0  0  0  0  0  0  0  0  0 
    3.7066   -1.4250   -0.1114 C   0  0  0  0  0  0  0  0  0  0  0  0 
    2.3741    0.7258    0.2765 C   0  0  0  0  0  0  0  0  0  0  0  0 
    2.4119   -0.7554   -0.0018 C   0  0  0  0  0  0  0  0  0  0  0  0 
   -0.0183   -0.7497   -0.0054 C   0  0  0  0  0  0  0  0  0  0  0  0 
    0.0039    0.6635   -0.0722 C   0  0  0  0  0  0  0  0  0  0  0  0 
    4.7821   -0.8531   -0.0261 O   0  0  0  0  0  0  0  0  0  0  0  0 
    1.1704    1.3503   -0.2076 O   0  0  0  0  0  0  0  0  0  0  0  0 
   -3.3997   -1.2006    0.1474 H   0  0  0  0  0  0  0  0  0  0  0  0 
   -3.3298    1.2835    0.0022 H   0  0  0  0  0  0  0  0  0  0  0  0 
   -1.2740   -2.4919    0.1152 H   0  0  0  0  0  0  0  0  0  0  0  0 
   -1.1422    2.4707   -0.1546 H   0  0  0  0  0  0  0  0  0  0  0  0 
    1.2550   -2.5178   -0.2551 H   0  0  0  0  0  0  0  0  0  0  0  0 
    3.6519   -2.5238   -0.2775 H   0  0  0  0  0  0  0  0  0  0  0  0 
    3.2000    1.2363   -0.2220 H   0  0  0  0  0  0  0  0  0  0  0  0 
    2.4636    0.9201    1.3572 H   0  0  0  0  0  0  0  0  0  0  0  0 
  1 13  1  0  0  0  0 
  2 14  1  0  0  0  0 
  2  1  2  0  0  0  0 
  3  1  1  0  0  0  0 
  3 15  1  0  0  0  0 
  4 10  2  0  0  0  0 
  4  2  1  0  0  0  0 
  5  9  1  0  0  0  0 
  5  8  2  0  0  0  0 
  6 11  2  0  0  0  0 
  6  8  1  0  0  0  0 
  7 20  1  0  0  0  0 
  8  7  1  0  0  0  0 
  9  3  2  0  0  0  0 
 10  9  1  0  0  0  0 
 12 10  1  0  0  0  0 
 12  7  1  0  0  0  0 
 16  4  1  0  0  0  0 
 17  5  1  0  0  0  0 
 18  6  1  0  0  0  0 
 19  7  1  0  0  0  0 
M  END 
>  <HBA> 
2 
 
>  <HBD> 
0 
 
>  <TPSA> 
26.3 
 
>  <cid> 
40066 
 
>  <dipole> 
3.69 
 
>  <excitation_energy_1> 
3.33 
 
>  <excitation_energy_2> 
3.499 
 
>  <excitation_energy_3> 
4.253 
 
>  <excitation_energy_4> 
5.133 
 
>  <homo_energy> 
-6.036 
 
>  <homo_lumo_gap> 
3.889 
 
>  <logP> 
1.661 
 
>  <lumo_energy> 
-2.147 
 
>  <melting_point> 
90.01 
 
>  <molecular_refractivity> 
45.92 
 
>  <oscillator_strength_1> 
0.119 
 
>  <oscillator_strength_2> 
0.018 
 
>  <oscillator_strength_3> 
0.2939 
 
>  <oscillator_strength_4> 
0.1382 
 
>  <open_babel_can_smiles> 
O=CC1=Cc2c(OC1)cccc2 
 
>  <mulliken_charges> 
20 
1   -0.137246 
2   -0.127927 
3   -0.194519 
4   -0.178618 
5   -0.169909 
6   0.203248 
7   -0.088426 
8   0.036718 
9   0.112908 
10   0.329194 
11   -0.423988 
12   -0.523253 
13   0.135442 
14   0.140463 
15   0.13718 
16   0.147589 
17   0.149508 
18   0.102878 
19   0.187488 
20   0.161268 
 
>  <lowdin_charges> 
20 
1   -0.174927 
2   -0.132886 
3   -0.138931 
4   -0.179701 
5   -0.110341 
6   0.038083 
7   -0.113542 
8   -0.075363 
9   -0.052294 
10   0.115086 
11   -0.241613 
12   -0.193418 
13   0.162018 
14   0.1642 
15   0.15908 
16   0.169577 
17   0.165167 
18   0.115997 
19   0.17556 
20   0.148249 
 
$$$$ 
 
