PCCDB-ID:  24114 
public computational chemistry database (PCCDB) project, http://pccdb.org 
 
 35 34  0  0  1  0  0  0  0  0999 V2000 
    8.3672   -0.7508    9.0502 C   0  0  0  0  0  0  0  0  0  0  0  0 
    9.0359   -3.0951   -0.5186 C   0  0  0  0  0  0  0  0  0  0  0  0 
   10.1468   -1.0733    3.6848 C   0  0  0  0  0  0  0  0  0  0  0  0 
    8.9689    0.1907    8.0025 C   0  0  0  0  0  0  0  0  0  0  0  0 
    7.7711   -2.3204   -0.1361 C   0  0  0  0  0  0  0  0  0  0  0  0 
    7.9104    1.0062    7.2509 C   0  0  0  0  0  0  0  0  0  0  0  0 
    7.9377   -0.7881   -0.2132 C   0  0  0  0  0  0  0  0  0  0  0  0 
    8.4865    1.9453    6.1964 C   0  0  0  0  0  0  0  0  0  0  0  0 
    9.3549    0.0941    3.0937 C   0  0  2  0  0  0  0  0  0  0  0  0 
    8.9609   -0.2583    0.7687 C   0  0  0  0  0  0  0  0  0  0  0  0 
    8.4526    0.7960    4.1100 C   0  0  0  0  0  0  0  0  0  0  0  0 
   10.0500    0.1935    0.4877 O   0  0  0  0  0  0  0  0  0  0  0  0 
    7.2635    0.9717    3.9901 O   0  0  0  0  0  0  0  0  0  0  0  0 
    9.1958    1.2209    5.1563 O   0  0  0  0  0  0  0  0  0  0  0  0 
    8.4978   -0.3719    2.0418 O   0  0  0  0  0  0  0  0  0  0  0  0 
    9.1493   -1.3110    9.5747 H   0  0  0  0  0  0  0  0  0  0  0  0 
    7.6888   -1.4785    8.5878 H   0  0  0  0  0  0  0  0  0  0  0  0 
    7.7921   -0.1974    9.8030 H   0  0  0  0  0  0  0  0  0  0  0  0 
    8.8618   -4.1757   -0.4687 H   0  0  0  0  0  0  0  0  0  0  0  0 
    9.8723   -2.8608    0.1502 H   0  0  0  0  0  0  0  0  0  0  0  0 
    9.3554   -2.8530   -1.5392 H   0  0  0  0  0  0  0  0  0  0  0  0 
   10.7810   -0.7234    4.5031 H   0  0  0  0  0  0  0  0  0  0  0  0 
   10.7822   -1.5081    2.9079 H   0  0  0  0  0  0  0  0  0  0  0  0 
    9.4720   -1.8476    4.0639 H   0  0  0  0  0  0  0  0  0  0  0  0 
    9.5569   -0.3899    7.2808 H   0  0  0  0  0  0  0  0  0  0  0  0 
    9.6741    0.8803    8.4888 H   0  0  0  0  0  0  0  0  0  0  0  0 
    7.4545   -2.5907    0.8780 H   0  0  0  0  0  0  0  0  0  0  0  0 
    6.9501   -2.6036   -0.8065 H   0  0  0  0  0  0  0  0  0  0  0  0 
    7.3423    1.6221    7.9633 H   0  0  0  0  0  0  0  0  0  0  0  0 
    7.1818    0.3404    6.7710 H   0  0  0  0  0  0  0  0  0  0  0  0 
    6.9769   -0.3070    0.0027 H   0  0  0  0  0  0  0  0  0  0  0  0 
    8.2630   -0.4868   -1.2135 H   0  0  0  0  0  0  0  0  0  0  0  0 
    9.2429    2.6092    6.6252 H   0  0  0  0  0  0  0  0  0  0  0  0 
    7.7008    2.5420    5.7276 H   0  0  0  0  0  0  0  0  0  0  0  0 
   10.0492    0.8333    2.6811 H   0  0  0  0  0  0  0  0  0  0  0  0 
  1 16  1  0  0  0  0 
  1 18  1  0  0  0  0 
  2 19  1  0  0  0  0 
  2  5  1  0  0  0  0 
  2 20  1  0  0  0  0 
  3 24  1  0  0  0  0 
  3 22  1  0  0  0  0 
  4 26  1  0  0  0  0 
  4  1  1  0  0  0  0 
  5 27  1  0  0  0  0 
  6 29  1  0  0  0  0 
  6  4  1  0  0  0  0 
  7  5  1  0  0  0  0 
  7 31  1  0  0  0  0 
  7 10  1  0  0  0  0 
  8 33  1  0  0  0  0 
  8  6  1  0  0  0  0 
  9 35  1  6  0  0  0 
  9  3  1  0  0  0  0 
  9 11  1  0  0  0  0 
 10 15  1  0  0  0  0 
 11 14  1  0  0  0  0 
 12 10  2  0  0  0  0 
 13 11  2  0  0  0  0 
 14  8  1  0  0  0  0 
 15  9  1  0  0  0  0 
 17  1  1  0  0  0  0 
 21  2  1  0  0  0  0 
 23  3  1  0  0  0  0 
 25  4  1  0  0  0  0 
 28  5  1  0  0  0  0 
 30  6  1  0  0  0  0 
 32  7  1  0  0  0  0 
 34  8  1  0  0  0  0 
M  END 
>  <HBA> 
4 
 
>  <HBD> 
0 
 
>  <TPSA> 
52.6 
 
>  <cid> 
24114 
 
>  <dipole> 
2.07 
 
>  <excitation_energy_1> 
5.724 
 
>  <excitation_energy_2> 
5.772 
 
>  <excitation_energy_3> 
6.667 
 
>  <excitation_energy_4> 
6.895 
 
>  <homo_energy> 
-7.301 
 
>  <homo_lumo_gap> 
7.494 
 
>  <logP> 
2.062 
 
>  <lumo_energy> 
0.193 
 
>  <melting_point> 
-5.0 
 
>  <molecular_refractivity> 
57.56 
 
>  <oscillator_strength_1> 
0.0021 
 
>  <oscillator_strength_2> 
0.0016 
 
>  <oscillator_strength_3> 
0.0171 
 
>  <oscillator_strength_4> 
0.0009 
 
>  <open_babel_can_smiles> 
CCCCOC(=O)[C@H](OC(=O)CCC)C 
 
>  <mulliken_charges> 
35 
1   -0.443159 
2   -0.446848 
3   -0.464803 
4   -0.249831 
5   -0.264839 
6   -0.274654 
7   -0.33554 
8   -0.054745 
9   0.035946 
10   0.614354 
11   0.618589 
12   -0.476344 
13   -0.466821 
14   -0.468116 
15   -0.452281 
16   0.145597 
17   0.145441 
18   0.143127 
19   0.14702 
20   0.153935 
21   0.149804 
22   0.174429 
23   0.172125 
24   0.161683 
25   0.145212 
26   0.130784 
27   0.157651 
28   0.144297 
29   0.138953 
30   0.160576 
31   0.172305 
32   0.164598 
33   0.15153 
34   0.172921 
35   0.197106 
 
>  <lowdin_charges> 
35 
1   -0.447533 
2   -0.445493 
3   -0.450782 
4   -0.277872 
5   -0.267001 
6   -0.289414 
7   -0.296036 
8   -0.132898 
9   -0.021949 
10   0.202673 
11   0.182758 
12   -0.265237 
13   -0.245743 
14   -0.194509 
15   -0.179968 
16   0.152703 
17   0.149626 
18   0.148266 
19   0.150804 
20   0.152031 
21   0.150338 
22   0.16974 
23   0.166902 
24   0.160158 
25   0.146558 
26   0.140714 
27   0.151275 
28   0.149207 
29   0.151739 
30   0.156899 
31   0.17169 
32   0.163608 
33   0.153754 
34   0.163552 
35   0.17944 
 
$$$$ 
 
