PCCDB-ID:  19909 
public computational chemistry database (PCCDB) project, http://pccdb.org 
 
  9  9  0  0  0  0  0  0  0  0999 V2000 
   -1.2324   -0.1272    0.0226 C   0  0  0  0  0  0  0  0  0  0  0  0 
    1.1013    0.7544    0.0256 C   0  0  0  0  0  0  0  0  0  0  0  0 
    2.1734    1.4389    0.0051 N   0  0  0  0  0  0  0  0  0  0  0  0 
   -0.3973   -1.1006    0.1240 N   0  0  0  0  0  0  0  0  0  0  0  0 
    0.8802   -0.6168    0.1265 N   0  0  0  0  0  0  0  0  0  0  0  0 
   -0.5381    1.4899   -0.0821 S   0  0  0  0  0  0  0  0  0  0  0  0 
   -2.3017   -0.2937    0.0019 H   0  0  0  0  0  0  0  0  0  0  0  0 
    3.0062    0.8501    0.0776 H   0  0  0  0  0  0  0  0  0  0  0  0 
    1.6274   -1.2919    0.2006 H   0  0  0  0  0  0  0  0  0  0  0  0 
  1  4  2  0  0  0  0 
  2  5  1  0  0  0  0 
  3  2  2  0  0  0  0 
  3  8  1  0  0  0  0 
  4  5  1  0  0  0  0 
  5  9  1  0  0  0  0 
  6  1  1  0  0  0  0 
  6  2  1  0  0  0  0 
  7  1  1  0  0  0  0 
M  END 
>  <HBA> 
4 
 
>  <HBD> 
1 
 
>  <TPSA> 
80.04 
 
>  <cid> 
19909 
 
>  <dipole> 
2.2 
 
>  <excitation_energy_1> 
4.689 
 
>  <excitation_energy_2> 
4.875 
 
>  <excitation_energy_3> 
5.113 
 
>  <excitation_energy_4> 
5.83 
 
>  <homo_energy> 
-6.014 
 
>  <homo_lumo_gap> 
5.562 
 
>  <logP> 
0.702 
 
>  <lumo_energy> 
-0.452 
 
>  <melting_point> 
82.71 
 
>  <molecular_refractivity> 
24.31 
 
>  <oscillator_strength_1> 
0.0003 
 
>  <oscillator_strength_2> 
0.0673 
 
>  <oscillator_strength_3> 
0.0003 
 
>  <oscillator_strength_4> 
0.0059 
 
>  <open_babel_can_smiles> 
N=c1scn[nH]1 
 
>  <mulliken_charges> 
9 
1   -0.131479 
2   0.313409 
3   -0.629178 
4   -0.175689 
5   -0.447806 
6   0.241046 
7   0.19611 
8   0.283124 
9   0.350462 
 
>  <lowdin_charges> 
9 
1   -0.248008 
2   -0.019234 
3   -0.435639 
4   -0.09519 
5   -0.208987 
6   0.255622 
7   0.190596 
8   0.260386 
9   0.300453 
 
$$$$ 
 
