PCCDB-ID:  20915 
public computational chemistry database (PCCDB) project, http://pccdb.org 
 
 20 20  0  0  1  0  0  0  0  0999 V2000 
   -2.1372    0.6084   -0.0326 C   0  0  0  0  0  0  0  0  0  0  0  0 
   -3.3173   -4.4971    2.6675 C   0  0  0  0  0  0  0  0  0  0  0  0 
   -2.4748   -5.4646    1.7936 C   0  0  0  0  0  0  0  0  0  0  0  0 
   -2.3438   -0.5465    0.9458 C   0  0  0  0  0  0  0  0  0  0  0  0 
   -2.0187   -3.2665    1.3893 C   0  0  3  0  0  0  0  0  0  0  0  0 
   -2.6677    0.2813   -1.3583 N   0  0  0  0  0  0  0  0  0  0  0  0 
   -3.0377   -3.1416    2.1545 N   0  0  0  0  0  0  0  0  0  0  0  0 
   -1.4559   -4.5408    1.2641 N   0  0  0  0  0  0  0  0  0  0  0  0 
   -1.2103   -1.9438    0.5305 S   0  0  0  0  0  0  0  0  0  0  0  0 
   -1.0739    0.9123   -0.0240 H   0  0  0  0  0  0  0  0  0  0  0  0 
   -2.7062    1.4634    0.3536 H   0  0  0  0  0  0  0  0  0  0  0  0 
   -3.0113   -4.5483    3.7214 H   0  0  0  0  0  0  0  0  0  0  0  0 
   -4.3896   -4.7130    2.6248 H   0  0  0  0  0  0  0  0  0  0  0  0 
   -3.0767   -5.9030    0.9839 H   0  0  0  0  0  0  0  0  0  0  0  0 
   -2.0156   -6.2768    2.3646 H   0  0  0  0  0  0  0  0  0  0  0  0 
   -3.3654   -0.9257    0.8913 H   0  0  0  0  0  0  0  0  0  0  0  0 
   -2.1354   -0.2366    1.9726 H   0  0  0  0  0  0  0  0  0  0  0  0 
   -2.1410   -0.4955   -1.7553 H   0  0  0  0  0  0  0  0  0  0  0  0 
   -2.5313    1.0714   -1.9862 H   0  0  0  0  0  0  0  0  0  0  0  0 
   -1.0447   -4.7708    0.3660 H   0  0  0  0  0  0  0  0  0  0  0  0 
  1 10  1  0  0  0  0 
  1 11  1  0  0  0  0 
  1  4  1  0  0  0  0 
  2 12  1  0  0  0  0 
  3 15  1  0  0  0  0 
  3  2  1  0  0  0  0 
  4 17  1  0  0  0  0 
  5  7  1  0  0  0  0 
  6  1  1  0  0  0  0 
  7  2  1  0  0  0  0 
  8  5  1  0  0  0  0 
  8  3  1  0  0  0  0 
  9  4  1  0  0  0  0 
  9  5  1  0  0  0  0 
 13  2  1  0  0  0  0 
 14  3  1  0  0  0  0 
 16  4  1  0  0  0  0 
 18  6  1  0  0  0  0 
 19  6  1  0  0  0  0 
 20  8  1  0  0  0  0 
M  RAD  2   5   2   7   2 
M  END 
>  <HBA> 
4 
 
>  <HBD> 
2 
 
>  <TPSA> 
75.71 
 
>  <cid> 
20915 
 
>  <dipole> 
1.68 
 
>  <excitation_energy_1> 
5.086 
 
>  <excitation_energy_2> 
5.315 
 
>  <excitation_energy_3> 
5.599 
 
>  <excitation_energy_4> 
5.657 
 
>  <homo_energy> 
-5.883 
 
>  <homo_lumo_gap> 
6.523 
 
>  <logP> 
0.102 
 
>  <lumo_energy> 
0.639 
 
>  <melting_point> 
104.94 
 
>  <molecular_refractivity> 
48.06 
 
>  <oscillator_strength_1> 
0.004 
 
>  <oscillator_strength_2> 
0.0042 
 
>  <oscillator_strength_3> 
0.0079 
 
>  <oscillator_strength_4> 
0.001 
 
>  <open_babel_can_smiles> 
NCCS[C]1[N]CCN1 
 
>  <mulliken_charges> 
20 
1   -0.154126 
2   -0.155398 
3   -0.151857 
4   -0.393723 
5   0.291344 
6   -0.713459 
7   -0.451712 
8   -0.591734 
9   0.100964 
10   0.128441 
11   0.154508 
12   0.153672 
13   0.151461 
14   0.143533 
15   0.155131 
16   0.215663 
17   0.186007 
18   0.309187 
19   0.297939 
20   0.324157 
 
>  <lowdin_charges> 
20 
1   -0.205169 
2   -0.200522 
3   -0.211953 
4   -0.358948 
5   -0.031559 
6   -0.561907 
7   -0.257038 
8   -0.316787 
9   0.133182 
10   0.122697 
11   0.153739 
12   0.146445 
13   0.149362 
14   0.138727 
15   0.153286 
16   0.184379 
17   0.168112 
18   0.25938 
19   0.257149 
20   0.277426 
 
$$$$ 
 
