PCCDB-ID:  33184 
public computational chemistry database (PCCDB) project, http://pccdb.org 
 
 11 10  0  0  0  0  0  0  0  0999 V2000 
    0.9136   -0.1196   -0.0619 C   0  0  0  0  0  0  0  0  0  0  0  0 
    2.3523    1.7693    1.4579 C   0  0  0  0  0  0  0  0  0  0  0  0 
    2.3725   -0.1493   -0.0929 N   0  0  0  0  0  0  0  0  0  0  0  0 
    2.9953    0.7152    0.6013 N   0  0  0  0  0  0  0  0  0  0  0  0 
    4.2427    0.7623    0.6343 O   0  0  0  0  0  0  0  0  0  0  0  0 
    0.5790   -0.9305   -0.7123 H   0  0  0  0  0  0  0  0  0  0  0  0 
    0.4910    0.8171   -0.4525 H   0  0  0  0  0  0  0  0  0  0  0  0 
    0.4975   -0.3016    0.9393 H   0  0  0  0  0  0  0  0  0  0  0  0 
    1.2660    1.7465    1.4170 H   0  0  0  0  0  0  0  0  0  0  0  0 
    2.7361    2.7252    1.1015 H   0  0  0  0  0  0  0  0  0  0  0  0 
    2.7073    1.5943    2.4738 H   0  0  0  0  0  0  0  0  0  0  0  0 
  1  8  1  0  0  0  0 
  2 11  1  0  0  0  0 
  3  1  1  0  0  0  0 
  3  4  1  0  0  0  0 
  4  5  1  0  0  0  0 
  4  2  1  0  0  0  0 
  6  1  1  0  0  0  0 
  7  1  1  0  0  0  0 
  9  2  1  0  0  0  0 
 10  2  1  0  0  0  0 
M  RAD  2   3   2   5   2 
M  END 
>  <HBA> 
2 
 
>  <HBD> 
0 
 
>  <TPSA> 
41.11 
 
>  <cid> 
33184 
 
>  <dipole> 
4.61 
 
>  <excitation_energy_1> 
4.175 
 
>  <excitation_energy_2> 
4.984 
 
>  <excitation_energy_3> 
5.623 
 
>  <excitation_energy_4> 
6.031 
 
>  <homo_energy> 
-6.686 
 
>  <homo_lumo_gap> 
5.543 
 
>  <logP> 
0.732 
 
>  <lumo_energy> 
-1.143 
 
>  <melting_point> 
3.32 
 
>  <molecular_refractivity> 
19.95 
 
>  <oscillator_strength_1> 
0.0 
 
>  <oscillator_strength_2> 
0.0008 
 
>  <oscillator_strength_3> 
0.2317 
 
>  <oscillator_strength_4> 
0.0058 
 
>  <open_babel_can_smiles> 
C[N]N([O])C 
 
>  <mulliken_charges> 
11 
1   -0.350141 
2   -0.33927 
3   -0.213023 
4   0.239501 
5   -0.431601 
6   0.186513 
7   0.160467 
8   0.160284 
9   0.172138 
10   0.207672 
11   0.207461 
 
>  <lowdin_charges> 
11 
1   -0.381235 
2   -0.382882 
3   -0.170969 
4   0.23493 
5   -0.315558 
6   0.172924 
7   0.151125 
8   0.150356 
9   0.166295 
10   0.187984 
11   0.18703 
 
$$$$ 
 
