PCCDB-ID:  67493 
public computational chemistry database (PCCDB) project, http://pccdb.org 
 
 25 27  0  0  0  0  0  0  0  0999 V2000 
   -3.3052   -1.2599    0.4968 C   0  0  0  0  0  0  0  0  0  0  0  0 
    3.3092   -1.2524    0.4950 C   0  0  0  0  0  0  0  0  0  0  0  0 
   -3.5334    0.0473    0.9357 C   0  0  0  0  0  0  0  0  0  0  0  0 
    3.5346    0.0554    0.9338 C   0  0  0  0  0  0  0  0  0  0  0  0 
   -2.1675   -1.5540   -0.2546 C   0  0  0  0  0  0  0  0  0  0  0  0 
    2.1718   -1.5490   -0.2559 C   0  0  0  0  0  0  0  0  0  0  0  0 
   -2.6229    1.0483    0.6167 C   0  0  0  0  0  0  0  0  0  0  0  0 
    2.6217    1.0543    0.6153 C   0  0  0  0  0  0  0  0  0  0  0  0 
    0.0010   -0.8506   -1.3882 C   0  0  0  0  0  0  0  0  0  0  0  0 
   -1.2295   -0.5646   -0.5622 C   0  0  0  0  0  0  0  0  0  0  0  0 
    1.2313   -0.5618   -0.5629 C   0  0  0  0  0  0  0  0  0  0  0  0 
   -1.4506    0.7470   -0.0951 C   0  0  0  0  0  0  0  0  0  0  0  0 
    1.4497    0.7503   -0.0959 C   0  0  0  0  0  0  0  0  0  0  0  0 
   -0.6320    1.8826   -0.3680 N   0  0  0  0  0  0  0  0  0  0  0  0 
    0.6283    1.8840   -0.3684 N   0  0  0  0  0  0  0  0  0  0  0  0 
   -4.0209   -2.0454    0.7233 H   0  0  0  0  0  0  0  0  0  0  0  0 
    4.0268   -2.0362    0.7211 H   0  0  0  0  0  0  0  0  0  0  0  0 
   -4.4253    0.2858    1.5081 H   0  0  0  0  0  0  0  0  0  0  0  0 
    4.4262    0.2959    1.5058 H   0  0  0  0  0  0  0  0  0  0  0  0 
   -2.0021   -2.5669   -0.6143 H   0  0  0  0  0  0  0  0  0  0  0  0 
    2.0084   -2.5623   -0.6155 H   0  0  0  0  0  0  0  0  0  0  0  0 
   -2.7838    2.0789    0.9179 H   0  0  0  0  0  0  0  0  0  0  0  0 
    2.7802    2.0852    0.9165 H   0  0  0  0  0  0  0  0  0  0  0  0 
    0.0000   -0.2202   -2.2897 H   0  0  0  0  0  0  0  0  0  0  0  0 
    0.0021   -1.8920   -1.7250 H   0  0  0  0  0  0  0  0  0  0  0  0 
  1 16  1  0  0  0  0 
  1  3  2  0  0  0  0 
  2 17  1  0  0  0  0 
  2  4  2  0  0  0  0 
  3 18  1  0  0  0  0 
  4 19  1  0  0  0  0 
  5  1  1  0  0  0  0 
  6  2  1  0  0  0  0 
  7 22  1  0  0  0  0 
  7  3  1  0  0  0  0 
  8 23  1  0  0  0  0 
  8  4  1  0  0  0  0 
  9 11  1  0  0  0  0 
  9 10  1  0  0  0  0 
 10  5  2  0  0  0  0 
 10 12  1  0  0  0  0 
 11  6  2  0  0  0  0 
 11 13  1  0  0  0  0 
 12  7  2  0  0  0  0 
 13  8  2  0  0  0  0 
 14 12  1  0  0  0  0 
 15 14  2  0  0  0  0 
 15 13  1  0  0  0  0 
 20  5  1  0  0  0  0 
 21  6  1  0  0  0  0 
 24  9  1  0  0  0  0 
 25  9  1  0  0  0  0 
M  END 
>  <HBA> 
2 
 
>  <HBD> 
0 
 
>  <TPSA> 
24.72 
 
>  <cid> 
67493 
 
>  <dipole> 
3.41 
 
>  <excitation_energy_1> 
2.616 
 
>  <excitation_energy_2> 
3.852 
 
>  <excitation_energy_3> 
4.097 
 
>  <excitation_energy_4> 
4.265 
 
>  <homo_energy> 
-5.777 
 
>  <homo_lumo_gap> 
3.856 
 
>  <logP> 
2.877 
 
>  <lumo_energy> 
-1.921 
 
>  <melting_point> 
93.73 
 
>  <molecular_refractivity> 
66.72 
 
>  <oscillator_strength_1> 
0.005 
 
>  <oscillator_strength_2> 
0.2098 
 
>  <oscillator_strength_3> 
0.013 
 
>  <oscillator_strength_4> 
0.0084 
 
>  <open_babel_can_smiles> 
c1ccc2c(c1)N=Nc1c(C2)cccc1 
 
>  <mulliken_charges> 
25 
1   -0.117199 
2   -0.117189 
3   -0.138899 
4   -0.138896 
5   -0.202561 
6   -0.202586 
7   -0.135377 
8   -0.13538 
9   -0.448804 
10   0.175427 
11   0.175459 
12   0.215902 
13   0.215891 
14   -0.295499 
15   -0.295486 
16   0.136072 
17   0.13607 
18   0.137516 
19   0.137514 
20   0.130258 
21   0.130256 
22   0.151394 
23   0.151392 
24   0.180648 
25   0.154077 
 
>  <lowdin_charges> 
25 
1   -0.147231 
2   -0.147232 
3   -0.156969 
4   -0.15698 
5   -0.165219 
6   -0.165208 
7   -0.139727 
8   -0.139718 
9   -0.268968 
10   -0.00116 
11   -0.001166 
12   0.000602 
13   0.000611 
14   -0.071666 
15   -0.071673 
16   0.162473 
17   0.162473 
18   0.162452 
19   0.162457 
20   0.157466 
21   0.157458 
22   0.170795 
23   0.170788 
24   0.168115 
25   0.157228 
 
$$$$ 
 
