PCCDB-ID:  66491 
public computational chemistry database (PCCDB) project, http://pccdb.org 
 
 22 24  0  0  0  0  0  0  0  0999 V2000 
    0.7490    2.7312    0.0001 C   0  0  0  0  0  0  0  0  0  0  0  0 
    1.9869   -1.9723   -0.0009 C   0  0  0  0  0  0  0  0  0  0  0  0 
    1.7321    1.7646   -0.0009 C   0  0  0  0  0  0  0  0  0  0  0  0 
    2.3678   -0.6459   -0.0013 C   0  0  0  0  0  0  0  0  0  0  0  0 
   -0.6139    2.3646    0.0012 C   0  0  0  0  0  0  0  0  0  0  0  0 
    0.6204   -2.3233    0.0002 C   0  0  0  0  0  0  0  0  0  0  0  0 
    1.3933    0.3865   -0.0008 C   0  0  0  0  0  0  0  0  0  0  0  0 
   -0.9931    1.0306    0.0018 C   0  0  0  0  0  0  0  0  0  0  0  0 
   -0.3582   -1.3450    0.0008 C   0  0  0  0  0  0  0  0  0  0  0  0 
    0.0135    0.0222    0.0005 C   0  0  0  0  0  0  0  0  0  0  0  0 
   -2.3909    0.5467    0.0022 C   0  0  0  0  0  0  0  0  0  0  0  0 
   -1.8088   -1.7136    0.0021 C   0  0  0  0  0  0  0  0  0  0  0  0 
   -2.7621   -0.6858    0.0020 N   0  0  0  0  0  0  0  0  0  0  0  0 
   -3.3960    1.4498    0.0024 O   0  0  0  0  0  0  0  0  0  0  0  0 
   -2.1599   -2.8837    0.0030 O   0  0  0  0  0  0  0  0  0  0  0  0 
    1.0162    3.7835   -0.0003 H   0  0  0  0  0  0  0  0  0  0  0  0 
    2.7407   -2.7543   -0.0009 H   0  0  0  0  0  0  0  0  0  0  0  0 
    2.7811    2.0502   -0.0013 H   0  0  0  0  0  0  0  0  0  0  0  0 
    3.4204   -0.3741   -0.0014 H   0  0  0  0  0  0  0  0  0  0  0  0 
   -1.3474    3.1686    0.0007 H   0  0  0  0  0  0  0  0  0  0  0  0 
    0.3078   -3.3627    0.0009 H   0  0  0  0  0  0  0  0  0  0  0  0 
   -3.0444    2.3526    0.0029 H   0  0  0  0  0  0  0  0  0  0  0  0 
  1  5  2  0  0  0  0 
  2 17  1  0  0  0  0 
  2  6  1  0  0  0  0 
  3  7  2  0  0  0  0 
  3  1  1  0  0  0  0 
  4  2  2  0  0  0  0 
  4  7  1  0  0  0  0 
  5  8  1  0  0  0  0 
  6  9  2  0  0  0  0 
  6 21  1  0  0  0  0 
  7 10  1  0  0  0  0 
  8 11  1  0  0  0  0 
  9 12  1  0  0  0  0 
 10  9  1  0  0  0  0 
 10  8  2  0  0  0  0 
 11 14  1  0  0  0  0 
 12 15  2  0  0  0  0 
 13 12  1  0  0  0  0 
 13 11  2  0  0  0  0 
 14 22  1  0  0  0  0 
 16  1  1  0  0  0  0 
 18  3  1  0  0  0  0 
 19  4  1  0  0  0  0 
 20  5  1  0  0  0  0 
M  END 
>  <HBA> 
2 
 
>  <HBD> 
1 
 
>  <TPSA> 
49.93 
 
>  <cid> 
66491 
 
>  <dipole> 
7.95 
 
>  <excitation_energy_1> 
2.97 
 
>  <excitation_energy_2> 
3.536 
 
>  <excitation_energy_3> 
3.693 
 
>  <excitation_energy_4> 
3.891 
 
>  <homo_energy> 
-6.544 
 
>  <homo_lumo_gap> 
3.869 
 
>  <logP> 
1.479 
 
>  <lumo_energy> 
-2.675 
 
>  <melting_point> 
210.38 
 
>  <molecular_refractivity> 
59.53 
 
>  <oscillator_strength_1> 
0.0001 
 
>  <oscillator_strength_2> 
0.1714 
 
>  <oscillator_strength_3> 
0.0001 
 
>  <oscillator_strength_4> 
0.013 
 
>  <open_babel_can_smiles> 
OC1=NC(=O)c2c3c1cccc3ccc2 
 
>  <mulliken_charges> 
22 
1   -0.122783 
2   -0.124098 
3   -0.19094 
4   -0.192659 
5   -0.24822 
6   -0.192472 
7   0.161277 
8   0.108103 
9   0.038875 
10   0.019451 
11   0.460684 
12   0.517607 
13   -0.508825 
14   -0.57367 
15   -0.465628 
16   0.14701 
17   0.147196 
18   0.148173 
19   0.14381 
20   0.130322 
21   0.175548 
22   0.421238 
 
>  <lowdin_charges> 
22 
1   -0.155016 
2   -0.150717 
3   -0.127367 
4   -0.136948 
5   -0.149451 
6   -0.108945 
7   0.000329 
8   -0.047905 
9   -0.046118 
10   0.004534 
11   0.157007 
12   0.155469 
13   -0.184746 
14   -0.326666 
15   -0.24227 
16   0.166307 
17   0.16818 
18   0.165693 
19   0.163232 
20   0.156034 
21   0.182849 
22   0.356515 
 
$$$$ 
 
