PCCDB-ID:  32318 
public computational chemistry database (PCCDB) project, http://pccdb.org 
 
 30 31  0  0  0  0  0  0  0  0999 V2000 
   -1.3826    1.5501    2.0599 C   0  0  0  0  0  0  0  0  0  0  0  0 
   -0.6493    0.4775    2.5747 C   0  0  0  0  0  0  0  0  0  0  0  0 
   -0.8508    2.3209    1.0250 C   0  0  0  0  0  0  0  0  0  0  0  0 
    0.6063    0.1807    2.0538 C   0  0  0  0  0  0  0  0  0  0  0  0 
    0.4133    2.0331    0.5095 C   0  0  0  0  0  0  0  0  0  0  0  0 
    3.9014    4.9328   -0.6897 C   0  0  0  0  0  0  0  0  0  0  0  0 
    5.3888    3.1590   -1.4537 C   0  0  0  0  0  0  0  0  0  0  0  0 
    4.9517    5.3035    0.3639 C   0  0  0  0  0  0  0  0  0  0  0  0 
    6.3848    3.5783   -0.3646 C   0  0  0  0  0  0  0  0  0  0  0  0 
    3.4048    1.4315   -0.2497 C   0  0  0  0  0  0  0  0  0  0  0  0 
    1.1590    0.9606    1.0241 C   0  0  0  0  0  0  0  0  0  0  0  0 
    2.5019    0.5349    0.5061 C   0  0  0  0  0  0  0  0  0  0  0  0 
    3.2107    2.7062   -0.3472 N   0  0  0  0  0  0  0  0  0  0  0  0 
    4.0216    3.5155   -1.0440 N   0  0  0  0  0  0  0  0  0  0  0  0 
    2.9118   -0.6061    0.7225 O   0  0  0  0  0  0  0  0  0  0  0  0 
    6.2606    4.9671   -0.0842 O   0  0  0  0  0  0  0  0  0  0  0  0 
   -2.3665    1.7804    2.4607 H   0  0  0  0  0  0  0  0  0  0  0  0 
   -1.0599   -0.1285    3.3780 H   0  0  0  0  0  0  0  0  0  0  0  0 
   -1.4235    3.1478    0.6131 H   0  0  0  0  0  0  0  0  0  0  0  0 
    1.1834   -0.6587    2.4273 H   0  0  0  0  0  0  0  0  0  0  0  0 
    0.8211    2.6362   -0.2911 H   0  0  0  0  0  0  0  0  0  0  0  0 
    4.0620    5.5298   -1.5958 H   0  0  0  0  0  0  0  0  0  0  0  0 
    2.8879    5.1021   -0.3200 H   0  0  0  0  0  0  0  0  0  0  0  0 
    5.4559    2.0948   -1.6841 H   0  0  0  0  0  0  0  0  0  0  0  0 
    5.6037    3.7137   -2.3743 H   0  0  0  0  0  0  0  0  0  0  0  0 
    4.7243    4.7820    1.3083 H   0  0  0  0  0  0  0  0  0  0  0  0 
    4.9575    6.3816    0.5507 H   0  0  0  0  0  0  0  0  0  0  0  0 
    7.4152    3.4205   -0.6971 H   0  0  0  0  0  0  0  0  0  0  0  0 
    6.2150    2.9849    0.5482 H   0  0  0  0  0  0  0  0  0  0  0  0 
    4.2737    0.9056   -0.6500 H   0  0  0  0  0  0  0  0  0  0  0  0 
  1 17  1  0  0  0  0 
  1  2  1  0  0  0  0 
  2 18  1  0  0  0  0 
  3  1  2  0  0  0  0 
  4 20  1  0  0  0  0 
  4  2  2  0  0  0  0 
  5 11  2  0  0  0  0 
  5  3  1  0  0  0  0 
  6 23  1  0  0  0  0 
  6  8  1  0  0  0  0 
  7 14  1  0  0  0  0 
  7  9  1  0  0  0  0 
  8 27  1  0  0  0  0 
  8 26  1  0  0  0  0 
  9 16  1  0  0  0  0 
  9 29  1  0  0  0  0 
 10 12  1  0  0  0  0 
 11  4  1  0  0  0  0 
 12 15  2  0  0  0  0 
 12 11  1  0  0  0  0 
 13 10  2  0  0  0  0 
 14  6  1  0  0  0  0 
 14 13  1  0  0  0  0 
 16  8  1  0  0  0  0 
 19  3  1  0  0  0  0 
 21  5  1  0  0  0  0 
 22  6  1  0  0  0  0 
 24  7  1  0  0  0  0 
 25  7  1  0  0  0  0 
 28  9  1  0  0  0  0 
 30 10  1  0  0  0  0 
M  END 
>  <HBA> 
4 
 
>  <HBD> 
0 
 
>  <TPSA> 
41.9 
 
>  <cid> 
32318 
 
>  <dipole> 
3.54 
 
>  <excitation_energy_1> 
3.51 
 
>  <excitation_energy_2> 
3.973 
 
>  <excitation_energy_3> 
4.316 
 
>  <excitation_energy_4> 
4.59 
 
>  <homo_energy> 
-6.011 
 
>  <homo_lumo_gap> 
4.387 
 
>  <logP> 
1.125 
 
>  <lumo_energy> 
-1.625 
 
>  <melting_point> 
69.68 
 
>  <molecular_refractivity> 
65.33 
 
>  <oscillator_strength_1> 
0.002 
 
>  <oscillator_strength_2> 
0.3698 
 
>  <oscillator_strength_3> 
0.0225 
 
>  <oscillator_strength_4> 
0.0809 
 
>  <open_babel_can_smiles> 
O=C(c1ccccc1)/C=N/N1CCOCC1 
 
>  <mulliken_charges> 
30 
1   -0.118865 
2   -0.135843 
3   -0.14215 
4   -0.152721 
5   -0.157002 
6   -0.146543 
7   -0.177128 
8   -0.038916 
9   -0.035496 
10   -0.027136 
11   0.063949 
12   0.382734 
13   -0.232806 
14   -0.238725 
15   -0.491789 
16   -0.462992 
17   0.131247 
18   0.132467 
19   0.128543 
20   0.158486 
21   0.151733 
22   0.157931 
23   0.173865 
24   0.173173 
25   0.170098 
26   0.143117 
27   0.155747 
28   0.158069 
29   0.144955 
30   0.131997 
 
>  <lowdin_charges> 
30 
1   -0.143492 
2   -0.160311 
3   -0.163936 
4   -0.132785 
5   -0.14664 
6   -0.213923 
7   -0.227156 
8   -0.140763 
9   -0.139732 
10   -0.186754 
11   -0.040416 
12   0.144799 
13   -0.069897 
14   -0.051978 
15   -0.264644 
16   -0.27222 
17   0.157657 
18   0.159797 
19   0.157828 
20   0.1749 
21   0.170255 
22   0.153272 
23   0.16969 
24   0.165562 
25   0.162463 
26   0.138179 
27   0.155354 
28   0.157344 
29   0.139935 
30   0.147611 
 
$$$$ 
 
