PCCDB-ID:  12704 
public computational chemistry database (PCCDB) project, http://pccdb.org 
 
 22 21  0  0  0  0  0  0  0  0999 V2000 
    1.6325   -0.4322    0.7527 C   0  0  0  0  0  0  0  0  0  0  0  0 
    2.2932   -0.3924   -3.6754 C   0  0  0  0  0  0  0  0  0  0  0  0 
    6.3863   -3.1024   -1.7536 C   0  0  0  0  0  0  0  0  0  0  0  0 
    2.4053    0.1774   -0.4183 C   0  0  0  0  0  0  0  0  0  0  0  0 
    2.1257   -1.2603   -2.4245 C   0  0  0  0  0  0  0  0  0  0  0  0 
    4.2312   -1.3361   -1.0734 C   0  0  0  0  0  0  0  0  0  0  0  0 
    2.9916   -0.8443   -1.3066 N   0  0  0  0  0  0  0  0  0  0  0  0 
    5.1876   -0.8829    0.2252 S   0  0  0  0  0  0  0  0  0  0  0  0 
    4.7595   -2.5295   -2.3372 S   0  0  0  0  0  0  0  0  0  0  0  0 
    1.1861    0.3646    1.3584 H   0  0  0  0  0  0  0  0  0  0  0  0 
    2.3046   -1.0142    1.3887 H   0  0  0  0  0  0  0  0  0  0  0  0 
    0.8241   -1.0860    0.4052 H   0  0  0  0  0  0  0  0  0  0  0  0 
    1.5994   -0.7259   -4.4554 H   0  0  0  0  0  0  0  0  0  0  0  0 
    3.3117   -0.4629   -4.0674 H   0  0  0  0  0  0  0  0  0  0  0  0 
    2.0793    0.6601   -3.4594 H   0  0  0  0  0  0  0  0  0  0  0  0 
    7.1195   -2.9282   -2.5439 H   0  0  0  0  0  0  0  0  0  0  0  0 
    6.3302   -4.1673   -1.5182 H   0  0  0  0  0  0  0  0  0  0  0  0 
    6.6506   -2.5297   -0.8596 H   0  0  0  0  0  0  0  0  0  0  0  0 
    3.2124    0.8132   -0.0521 H   0  0  0  0  0  0  0  0  0  0  0  0 
    1.7436    0.7919   -1.0386 H   0  0  0  0  0  0  0  0  0  0  0  0 
    2.3151   -2.3115   -2.6542 H   0  0  0  0  0  0  0  0  0  0  0  0 
    1.0945   -1.2045   -2.0600 H   0  0  0  0  0  0  0  0  0  0  0  0 
  1 10  1  0  0  0  0 
  1 11  1  0  0  0  0 
  2 15  1  0  0  0  0 
  2  5  1  0  0  0  0 
  3 17  1  0  0  0  0 
  3 18  1  0  0  0  0 
  4 19  1  0  0  0  0 
  4  1  1  0  0  0  0 
  5 22  1  0  0  0  0 
  5  7  1  0  0  0  0 
  6  8  2  0  0  0  0 
  7  6  1  0  0  0  0 
  7  4  1  0  0  0  0 
  9  3  1  0  0  0  0 
  9  6  1  0  0  0  0 
 12  1  1  0  0  0  0 
 13  2  1  0  0  0  0 
 14  2  1  0  0  0  0 
 16  3  1  0  0  0  0 
 20  4  1  0  0  0  0 
 21  5  1  0  0  0  0 
M  END 
>  <HBA> 
3 
 
>  <HBD> 
0 
 
>  <TPSA> 
60.63 
 
>  <cid> 
12704 
 
>  <dipole> 
3.4 
 
>  <excitation_energy_1> 
3.746 
 
>  <excitation_energy_2> 
4.681 
 
>  <excitation_energy_3> 
5.176 
 
>  <excitation_energy_4> 
5.253 
 
>  <homo_energy> 
-5.687 
 
>  <homo_lumo_gap> 
5.105 
 
>  <logP> 
1.976 
 
>  <lumo_energy> 
-0.582 
 
>  <melting_point> 
15.4 
 
>  <molecular_refractivity> 
49.23 
 
>  <oscillator_strength_1> 
0.0003 
 
>  <oscillator_strength_2> 
0.0758 
 
>  <oscillator_strength_3> 
0.0169 
 
>  <oscillator_strength_4> 
0.0812 
 
>  <open_babel_can_smiles> 
CCN(C(=S)SC)CC 
 
>  <mulliken_charges> 
22 
1   -0.443751 
2   -0.443773 
3   -0.608599 
4   -0.157282 
5   -0.18074 
6   -0.013476 
7   -0.321957 
8   -0.253773 
9   0.140248 
10   0.151287 
11   0.187854 
12   0.144194 
13   0.153702 
14   0.181874 
15   0.155287 
16   0.187114 
17   0.18734 
18   0.231206 
19   0.199209 
20   0.147681 
21   0.195109 
22   0.161246 
 
>  <lowdin_charges> 
22 
1   -0.453325 
2   -0.450454 
3   -0.552317 
4   -0.198592 
5   -0.2005 
6   -0.148614 
7   -0.064822 
8   -0.23402 
9   0.142131 
10   0.158485 
11   0.172792 
12   0.148669 
13   0.159412 
14   0.166288 
15   0.152645 
16   0.175161 
17   0.171658 
18   0.202172 
19   0.178711 
20   0.149374 
21   0.1703 
22   0.154848 
 
$$$$ 
 
