PCCDB-ID:  42016 
public computational chemistry database (PCCDB) project, http://pccdb.org 
 
 17 16  0  0  0  0  0  0  0  0999 V2000 
    0.6213   -0.6778    1.6036 C   0  0  0  0  0  0  0  0  0  0  0  0 
    4.6520   -2.3092    3.6396 C   0  0  0  0  0  0  0  0  0  0  0  0 
    4.2879   -1.2052    1.3647 C   0  0  0  0  0  0  0  0  0  0  0  0 
    2.0724   -0.5445    1.9924 C   0  0  0  0  0  0  0  0  0  0  0  0 
    5.2729   -3.3349    1.5115 N   0  0  0  0  0  0  0  0  0  0  0  0 
    4.7789   -2.2728    2.1845 N   0  0  0  0  0  0  0  0  0  0  0  0 
    2.4974    0.1080    2.9206 O   0  0  0  0  0  0  0  0  0  0  0  0 
    5.6214   -4.2608    2.2302 O   0  0  0  0  0  0  0  0  0  0  0  0 
    2.8599   -1.2699    1.1520 O   0  0  0  0  0  0  0  0  0  0  0  0 
    0.0100   -0.0585    2.2604 H   0  0  0  0  0  0  0  0  0  0  0  0 
    0.3110   -1.7250    1.6843 H   0  0  0  0  0  0  0  0  0  0  0  0 
    0.4804   -0.3762    0.5609 H   0  0  0  0  0  0  0  0  0  0  0  0 
    4.2231   -1.3638    3.9686 H   0  0  0  0  0  0  0  0  0  0  0  0 
    5.6356   -2.4691    4.0907 H   0  0  0  0  0  0  0  0  0  0  0  0 
    4.0064   -3.1412    3.9391 H   0  0  0  0  0  0  0  0  0  0  0  0 
    4.7312   -1.3264    0.3774 H   0  0  0  0  0  0  0  0  0  0  0  0 
    4.5348   -0.2406    1.8080 H   0  0  0  0  0  0  0  0  0  0  0  0 
  1 11  1  0  0  0  0 
  1  4  1  0  0  0  0 
  1 10  1  0  0  0  0 
  2 15  1  0  0  0  0 
  2 13  1  0  0  0  0 
  2 14  1  0  0  0  0 
  3 17  1  0  0  0  0 
  3  6  1  0  0  0  0 
  4  7  2  0  0  0  0 
  5  6  1  0  0  0  0 
  5  8  1  0  0  0  0 
  6  2  1  0  0  0  0 
  9  3  1  0  0  0  0 
  9  4  1  0  0  0  0 
 12  1  1  0  0  0  0 
 16  3  1  0  0  0  0 
M  RAD  2   5   2   8   2 
M  END 
>  <HBA> 
5 
 
>  <HBD> 
0 
 
>  <TPSA> 
58.97 
 
>  <cid> 
42016 
 
>  <dipole> 
2.92 
 
>  <excitation_energy_1> 
3.325 
 
>  <excitation_energy_2> 
5.534 
 
>  <excitation_energy_3> 
5.758 
 
>  <excitation_energy_4> 
5.893 
 
>  <homo_energy> 
-6.37 
 
>  <homo_lumo_gap> 
5.211 
 
>  <logP> 
0.12 
 
>  <lumo_energy> 
-1.159 
 
>  <melting_point> 
8.89 
 
>  <molecular_refractivity> 
30.26 
 
>  <oscillator_strength_1> 
0.0014 
 
>  <oscillator_strength_2> 
0.0004 
 
>  <oscillator_strength_3> 
0.0088 
 
>  <oscillator_strength_4> 
0.1267 
 
>  <open_babel_can_smiles> 
CN([N][O])COC(=O)C 
 
>  <mulliken_charges> 
17 
1   -0.523507 
2   -0.333203 
3   0.06606 
4   0.605161 
5   0.1536 
6   -0.214387 
7   -0.465439 
8   -0.359313 
9   -0.443208 
10   0.187512 
11   0.191065 
12   0.188441 
13   0.197861 
14   0.185978 
15   0.18393 
16   0.191036 
17   0.188415 
 
>  <lowdin_charges> 
17 
1   -0.461845 
2   -0.374107 
3   -0.076786 
4   0.206313 
5   0.059743 
6   -0.04785 
7   -0.264375 
8   -0.247806 
9   -0.203689 
10   0.179994 
11   0.182406 
12   0.180755 
13   0.180432 
14   0.17142 
15   0.170462 
16   0.176171 
17   0.168761 
 
$$$$ 
 
