PCCDB-ID:  11412 
public computational chemistry database (PCCDB) project, http://pccdb.org 
 
 26 25  0  0  1  0  0  0  0  0999 V2000 
    1.2419   -0.5393   -0.2432 C   0  0  0  0  0  0  0  0  0  0  0  0 
    6.6979    0.5661    1.9784 C   0  0  0  0  0  0  0  0  0  0  0  0 
    2.3389    1.8848    1.4086 C   0  0  0  0  0  0  0  0  0  0  0  0 
    5.1729    2.6744    0.1862 C   0  0  0  0  0  0  0  0  0  0  0  0 
    2.6921   -0.3454    0.2172 C   0  0  0  0  0  0  0  0  0  0  0  0 
    5.1813    0.7833    1.8973 C   0  0  0  0  0  0  0  0  0  0  0  0 
    3.1387    1.1286    0.3335 C   0  0  2  0  0  0  0  0  0  0  0  0 
    4.6810    1.2533    0.5136 C   0  0  1  0  0  0  0  0  0  0  0  0 
    1.0194   -1.6020   -0.3932 H   0  0  0  0  0  0  0  0  0  0  0  0 
    1.0555   -0.0244   -1.1943 H   0  0  0  0  0  0  0  0  0  0  0  0 
    0.5223   -0.1557    0.4882 H   0  0  0  0  0  0  0  0  0  0  0  0 
    6.9861    0.1835    2.9644 H   0  0  0  0  0  0  0  0  0  0  0  0 
    7.2571    1.4934    1.8118 H   0  0  0  0  0  0  0  0  0  0  0  0 
    7.0331   -0.1625    1.2295 H   0  0  0  0  0  0  0  0  0  0  0  0 
    1.2721    1.9120    1.1633 H   0  0  0  0  0  0  0  0  0  0  0  0 
    2.6737    2.9231    1.5076 H   0  0  0  0  0  0  0  0  0  0  0  0 
    2.4382    1.4082    2.3914 H   0  0  0  0  0  0  0  0  0  0  0  0 
    6.2667    2.7284    0.1721 H   0  0  0  0  0  0  0  0  0  0  0  0 
    4.8196    3.4070    0.9222 H   0  0  0  0  0  0  0  0  0  0  0  0 
    4.8170    2.9958   -0.8002 H   0  0  0  0  0  0  0  0  0  0  0  0 
    3.3573   -0.8549   -0.4942 H   0  0  0  0  0  0  0  0  0  0  0  0 
    2.8305   -0.8551    1.1810 H   0  0  0  0  0  0  0  0  0  0  0  0 
    4.8803    1.5116    2.6630 H   0  0  0  0  0  0  0  0  0  0  0  0 
    4.6840   -0.1588    2.1614 H   0  0  0  0  0  0  0  0  0  0  0  0 
    2.9108    1.6007   -0.6358 H   0  0  0  0  0  0  0  0  0  0  0  0 
    5.1287    0.5808   -0.2358 H   0  0  0  0  0  0  0  0  0  0  0  0 
  1  5  1  0  0  0  0 
  1 11  1  0  0  0  0 
  2 12  1  0  0  0  0 
  3 16  1  0  0  0  0 
  3 17  1  0  0  0  0 
  4  8  1  0  0  0  0 
  4 19  1  0  0  0  0 
  5  7  1  0  0  0  0 
  5 22  1  0  0  0  0 
  6  2  1  0  0  0  0 
  6 24  1  0  0  0  0 
  6 23  1  0  0  0  0 
  7 25  1  6  0  0  0 
  7  8  1  0  0  0  0 
  7  3  1  0  0  0  0 
  8 26  1  6  0  0  0 
  8  6  1  0  0  0  0 
  9  1  1  0  0  0  0 
 10  1  1  0  0  0  0 
 13  2  1  0  0  0  0 
 14  2  1  0  0  0  0 
 15  3  1  0  0  0  0 
 18  4  1  0  0  0  0 
 20  4  1  0  0  0  0 
 21  5  1  0  0  0  0 
M  END 
>  <HBA> 
0 
 
>  <HBD> 
0 
 
>  <TPSA> 
0.0 
 
>  <cid> 
11412 
 
>  <dipole> 
0.06 
 
>  <excitation_energy_1> 
7.531 
 
>  <excitation_energy_2> 
7.646 
 
>  <excitation_energy_3> 
7.82 
 
>  <excitation_energy_4> 
7.928 
 
>  <homo_energy> 
-7.989 
 
>  <homo_lumo_gap> 
10.237 
 
>  <logP> 
3.079 
 
>  <lumo_energy> 
2.248 
 
>  <melting_point> 
-27.89 
 
>  <molecular_refractivity> 
40.57 
 
>  <oscillator_strength_1> 
0.005 
 
>  <oscillator_strength_2> 
0.0024 
 
>  <oscillator_strength_3> 
0.0122 
 
>  <oscillator_strength_4> 
0.0062 
 
>  <open_babel_can_smiles> 
CC[C@H]([C@H](CC)C)C 
 
>  <mulliken_charges> 
26 
1   -0.448441 
2   -0.44858 
3   -0.46075 
4   -0.458304 
5   -0.253796 
6   -0.256961 
7   -0.061976 
8   -0.063338 
9   0.141137 
10   0.140127 
11   0.145748 
12   0.140671 
13   0.14514 
14   0.140525 
15   0.14398 
16   0.142914 
17   0.142186 
18   0.143736 
19   0.140713 
20   0.138549 
21   0.126992 
22   0.130642 
23   0.131362 
24   0.133139 
25   0.111972 
26   0.112614 
 
>  <lowdin_charges> 
26 
1   -0.446171 
2   -0.446716 
3   -0.447386 
4   -0.447498 
5   -0.277058 
6   -0.278138 
7   -0.124814 
8   -0.126416 
9   0.148141 
10   0.145315 
11   0.148448 
12   0.148755 
13   0.146972 
14   0.146469 
15   0.14841 
16   0.147606 
17   0.14609 
18   0.147195 
19   0.145944 
20   0.146651 
21   0.140456 
22   0.137996 
23   0.140707 
24   0.141372 
25   0.1332 
26   0.134465 
 
$$$$ 
 
