PCCDB-ID:  19193 
public computational chemistry database (PCCDB) project, http://pccdb.org 
 
 15 15  0  0  0  0  0  0  0  0999 V2000 
    3.5750    0.2209    1.0219 C   0  0  0  0  0  0  0  0  0  0  0  0 
    2.4306   -0.0086    0.0157 C   0  0  0  0  0  0  0  0  0  0  0  0 
    3.0266   -3.1012   -1.8109 C   0  0  0  0  0  0  0  0  0  0  0  0 
    3.7853   -1.4091   -3.0600 C   0  0  0  0  0  0  0  0  0  0  0  0 
    2.8347   -0.9819   -1.0577 C   0  0  0  0  0  0  0  0  0  0  0  0 
    3.6169   -2.7312   -2.9522 N   0  0  0  0  0  0  0  0  0  0  0  0 
    2.6165   -2.2898   -0.8345 N   0  0  0  0  0  0  0  0  0  0  0  0 
    3.4230   -0.4909   -2.1626 N   0  0  0  0  0  0  0  0  0  0  0  0 
    3.2643    0.9311    1.7951 H   0  0  0  0  0  0  0  0  0  0  0  0 
    4.4594    0.6270    0.5196 H   0  0  0  0  0  0  0  0  0  0  0  0 
    3.8566   -0.7172    1.5118 H   0  0  0  0  0  0  0  0  0  0  0  0 
    2.1596    0.9399   -0.4584 H   0  0  0  0  0  0  0  0  0  0  0  0 
    1.5553   -0.4088    0.5365 H   0  0  0  0  0  0  0  0  0  0  0  0 
    2.8623   -4.1679   -1.6652 H   0  0  0  0  0  0  0  0  0  0  0  0 
    4.2621   -1.0464   -3.9695 H   0  0  0  0  0  0  0  0  0  0  0  0 
  1 11  1  0  0  0  0 
  1  9  1  0  0  0  0 
  2 13  1  0  0  0  0 
  2  1  1  0  0  0  0 
  3 14  1  0  0  0  0 
  3  7  1  0  0  0  0 
  4  6  2  0  0  0  0 
  4  8  1  0  0  0  0 
  5  7  2  0  0  0  0 
  5  2  1  0  0  0  0 
  6  3  2  0  0  0  0 
  8  5  1  0  0  0  0 
 10  1  1  0  0  0  0 
 12  2  1  0  0  0  0 
 15  4  1  0  0  0  0 
M  RAD  1   8   2 
M  END 
>  <HBA> 
3 
 
>  <HBD> 
0 
 
>  <TPSA> 
38.67 
 
>  <cid> 
19193 
 
>  <dipole> 
0.89 
 
>  <excitation_energy_1> 
4.534 
 
>  <excitation_energy_2> 
4.545 
 
>  <excitation_energy_3> 
4.637 
 
>  <excitation_energy_4> 
4.729 
 
>  <homo_energy> 
-7.312 
 
>  <homo_lumo_gap> 
5.957 
 
>  <logP> 
0.434 
 
>  <lumo_energy> 
-1.355 
 
>  <melting_point> 
53.0 
 
>  <molecular_refractivity> 
29.6 
 
>  <oscillator_strength_1> 
0.0 
 
>  <oscillator_strength_2> 
0.0054 
 
>  <oscillator_strength_3> 
0.0 
 
>  <oscillator_strength_4> 
0.0088 
 
>  <open_babel_can_smiles> 
CCC1=NC=[N]=C[N]1 
 
>  <mulliken_charges> 
15 
1   -0.453357 
2   -0.303181 
3   0.179873 
4   0.179862 
5   0.419136 
6   -0.366466 
7   -0.400512 
8   -0.400552 
9   0.156287 
10   0.162622 
11   0.162615 
12   0.164776 
13   0.164803 
14   0.167047 
15   0.167048 
 
>  <lowdin_charges> 
15 
1   -0.438119 
2   -0.278057 
3   -0.011288 
4   -0.013052 
5   0.119451 
6   -0.168522 
7   -0.171597 
8   -0.171701 
9   0.157988 
10   0.157558 
11   0.157178 
12   0.164326 
13   0.164842 
14   0.16435 
15   0.166643 
 
$$$$ 
 
