PCCDB-ID:  21123 
public computational chemistry database (PCCDB) project, http://pccdb.org 
 
 17 16  0  0  0  0  0  0  0  0999 V2000 
    1.6368    0.1082   -1.3507 C   0  0  0  0  0  0  0  0  0  0  0  0 
    3.0328   -0.2688   -1.8095 C   0  0  0  0  0  0  0  0  0  0  0  0 
    5.6264   -0.0076    1.4934 C   0  0  0  0  0  0  0  0  0  0  0  0 
    5.1927   -0.5198   -0.7609 C   0  0  0  0  0  0  0  0  0  0  0  0 
    6.0430   -0.4433    0.1754 N   0  0  0  0  0  0  0  0  0  0  0  0 
    6.7116    0.5812    2.1784 O   0  0  0  0  0  0  0  0  0  0  0  0 
    5.5497   -0.9067   -2.0107 O   0  0  0  0  0  0  0  0  0  0  0  0 
    3.8824   -0.2476   -0.6380 O   0  0  0  0  0  0  0  0  0  0  0  0 
    0.9526    0.1057   -2.2062 H   0  0  0  0  0  0  0  0  0  0  0  0 
    1.6301    1.1075   -0.9043 H   0  0  0  0  0  0  0  0  0  0  0  0 
    1.2653   -0.6047   -0.6080 H   0  0  0  0  0  0  0  0  0  0  0  0 
    3.4207    0.4400   -2.5483 H   0  0  0  0  0  0  0  0  0  0  0  0 
    3.0567   -1.2696   -2.2517 H   0  0  0  0  0  0  0  0  0  0  0  0 
    5.2331   -0.8765    2.0500 H   0  0  0  0  0  0  0  0  0  0  0  0 
    4.8392    0.7552    1.4616 H   0  0  0  0  0  0  0  0  0  0  0  0 
    7.4752    0.0051    2.0132 H   0  0  0  0  0  0  0  0  0  0  0  0 
    6.5108   -1.0522   -1.9648 H   0  0  0  0  0  0  0  0  0  0  0  0 
  1 10  1  0  0  0  0 
  1 11  1  0  0  0  0 
  2  1  1  0  0  0  0 
  2  8  1  0  0  0  0 
  3 14  1  0  0  0  0 
  3  6  1  0  0  0  0 
  4  8  1  0  0  0  0 
  4  5  2  0  0  0  0 
  5  3  1  0  0  0  0 
  7 17  1  0  0  0  0 
  7  4  1  0  0  0  0 
  9  1  1  0  0  0  0 
 12  2  1  0  0  0  0 
 13  2  1  0  0  0  0 
 15  3  1  0  0  0  0 
 16  6  1  0  0  0  0 
M  END 
>  <HBA> 
4 
 
>  <HBD> 
2 
 
>  <TPSA> 
58.56 
 
>  <cid> 
21123 
 
>  <dipole> 
3.24 
 
>  <excitation_energy_1> 
5.951 
 
>  <excitation_energy_2> 
6.574 
 
>  <excitation_energy_3> 
6.609 
 
>  <excitation_energy_4> 
6.849 
 
>  <homo_energy> 
-6.536 
 
>  <homo_lumo_gap> 
7.804 
 
>  <logP> 
0.073 
 
>  <lumo_energy> 
1.268 
 
>  <melting_point> 
43.34 
 
>  <molecular_refractivity> 
26.98 
 
>  <oscillator_strength_1> 
0.0014 
 
>  <oscillator_strength_2> 
0.0026 
 
>  <oscillator_strength_3> 
0.0032 
 
>  <oscillator_strength_4> 
0.0612 
 
>  <open_babel_can_smiles> 
CCO/C(=N\CO)/O 
 
>  <mulliken_charges> 
17 
1   -0.461258 
2   -0.026867 
3   0.093425 
4   0.733901 
5   -0.530859 
6   -0.61293 
7   -0.604748 
8   -0.477996 
9   0.154027 
10   0.166888 
11   0.165964 
12   0.159742 
13   0.161112 
14   0.122676 
15   0.146832 
16   0.385623 
17   0.424469 
 
>  <lowdin_charges> 
17 
1   -0.449352 
2   -0.11811 
3   -0.069127 
4   0.194031 
5   -0.291123 
6   -0.463593 
7   -0.366498 
8   -0.198176 
9   0.160934 
10   0.160994 
11   0.162252 
12   0.152049 
13   0.15088 
14   0.123299 
15   0.140474 
16   0.340301 
17   0.370764 
 
$$$$ 
 
