PCCDB-ID:  66629 
public computational chemistry database (PCCDB) project, http://pccdb.org 
 
 25 25  0  0  0  0  0  0  0  0999 V2000 
    3.2862    0.6462   -0.9996 C   0  0  0  0  0  0  0  0  0  0  0  0 
    3.2452    1.1145    1.5013 C   0  0  0  0  0  0  0  0  0  0  0  0 
    2.6267   -3.2787    0.6742 C   0  0  0  0  0  0  0  0  0  0  0  0 
    2.7245   -1.9163    0.4200 C   0  0  0  0  0  0  0  0  0  0  0  0 
    4.9203   -3.2756    1.4550 C   0  0  0  0  0  0  0  0  0  0  0  0 
    3.9199    0.3180    0.3650 C   0  0  0  0  0  0  0  0  0  0  0  0 
    3.7365   -3.9447    1.1886 C   0  0  0  0  0  0  0  0  0  0  0  0 
    3.8912   -1.1741    0.6806 C   0  0  0  0  0  0  0  0  0  0  0  0 
    4.9712   -1.9030    1.2202 C   0  0  0  0  0  0  0  0  0  0  0  0 
    3.6566   -5.3901    1.4550 N   0  0  0  0  0  0  0  0  0  0  0  0 
    6.2509   -1.2600    1.5850 N   0  0  0  0  0  0  0  0  0  0  0  0 
    2.5961   -5.9546    1.1912 O   0  0  0  0  0  0  0  0  0  0  0  0 
    4.6519   -5.9383    1.9233 O   0  0  0  0  0  0  0  0  0  0  0  0 
    7.2725   -1.9305    1.4586 O   0  0  0  0  0  0  0  0  0  0  0  0 
    6.2173   -0.1086    2.0201 O   0  0  0  0  0  0  0  0  0  0  0  0 
    3.4581    1.7028   -1.2310 H   0  0  0  0  0  0  0  0  0  0  0  0 
    2.2020    0.4882   -1.0102 H   0  0  0  0  0  0  0  0  0  0  0  0 
    3.7258    0.0487   -1.8056 H   0  0  0  0  0  0  0  0  0  0  0  0 
    3.2908    2.1872    1.2825 H   0  0  0  0  0  0  0  0  0  0  0  0 
    3.7510    0.9384    2.4542 H   0  0  0  0  0  0  0  0  0  0  0  0 
    2.1901    0.8355    1.6079 H   0  0  0  0  0  0  0  0  0  0  0  0 
    1.7153   -3.8295    0.4763 H   0  0  0  0  0  0  0  0  0  0  0  0 
    1.8638   -1.4067    0.0014 H   0  0  0  0  0  0  0  0  0  0  0  0 
    5.7812   -3.8026    1.8434 H   0  0  0  0  0  0  0  0  0  0  0  0 
    4.9630    0.6357    0.3257 H   0  0  0  0  0  0  0  0  0  0  0  0 
  1  6  1  0  0  0  0 
  2 21  1  0  0  0  0 
  2 20  1  0  0  0  0 
  3  7  1  0  0  0  0 
  4  3  2  0  0  0  0 
  4  8  1  0  0  0  0 
  5 24  1  0  0  0  0 
  6  8  1  0  0  0  0 
  6  2  1  0  0  0  0 
  7  5  2  0  0  0  0 
  7 10  1  0  0  0  0 
  8  9  2  0  0  0  0 
  9  5  1  0  0  0  0 
  9 11  1  0  0  0  0 
 10 13  2  0  0  0  0 
 11 15  2  0  0  0  0 
 12 10  2  0  0  0  0 
 14 11  2  0  0  0  0 
 16  1  1  0  0  0  0 
 17  1  1  0  0  0  0 
 18  1  1  0  0  0  0 
 19  2  1  0  0  0  0 
 22  3  1  0  0  0  0 
 23  4  1  0  0  0  0 
 25  6  1  0  0  0  0 
M  END 
>  <HBA> 
0 
 
>  <HBD> 
0 
 
>  <TPSA> 
91.64 
 
>  <cid> 
66629 
 
>  <dipole> 
5.06 
 
>  <excitation_energy_1> 
3.715 
 
>  <excitation_energy_2> 
3.748 
 
>  <excitation_energy_3> 
4.178 
 
>  <excitation_energy_4> 
4.242 
 
>  <homo_energy> 
-7.94 
 
>  <homo_lumo_gap> 
5.026 
 
>  <logP> 
3.673 
 
>  <lumo_energy> 
-2.914 
 
>  <melting_point> 
85.42 
 
>  <molecular_refractivity> 
58.67 
 
>  <oscillator_strength_1> 
0.0136 
 
>  <oscillator_strength_2> 
0.0 
 
>  <oscillator_strength_3> 
0.0047 
 
>  <oscillator_strength_4> 
0.0008 
 
>  <open_babel_can_smiles> 
O=N(=O)c1cc(ccc1C(C)C)N(=O)=O 
 
>  <mulliken_charges> 
25 
1   -0.454981 
2   -0.443285 
3   -0.125581 
4   -0.211719 
5   -0.162169 
6   -0.158039 
7   0.267415 
8   0.197251 
9   0.186761 
10   0.382297 
11   0.355941 
12   -0.388186 
13   -0.384307 
14   -0.366634 
15   -0.37548 
16   0.160098 
17   0.147289 
18   0.157128 
19   0.156221 
20   0.173994 
21   0.143162 
22   0.193874 
23   0.158418 
24   0.223005 
25   0.167526 
 
>  <lowdin_charges> 
25 
1   -0.441709 
2   -0.434535 
3   -0.120327 
4   -0.150773 
5   -0.120949 
6   -0.125245 
7   0.002582 
8   0.040057 
9   0.002937 
10   0.310759 
11   0.304406 
12   -0.239908 
13   -0.235666 
14   -0.229606 
15   -0.233322 
16   0.158968 
17   0.145999 
18   0.157164 
19   0.155811 
20   0.164295 
21   0.146323 
22   0.194108 
23   0.174882 
24   0.210722 
25   0.163027 
 
$$$$ 
 
