PCCDB-ID:  10557 
public computational chemistry database (PCCDB) project, http://pccdb.org 
 
 13 12  0  0  0  0  0  0  0  0999 V2000 
    0.9105   -0.0744   -0.1808 C   0  0  0  0  0  0  0  0  0  0  0  0 
    3.0626   -0.6539    0.9595 C   0  0  0  0  0  0  0  0  0  0  0  0 
    3.0073    0.9113   -1.0658 C   0  0  0  0  0  0  0  0  0  0  0  0 
    2.2398    0.0404   -0.0953 C   0  0  0  0  0  0  0  0  0  0  0  0 
    3.7415    1.9473   -0.4091 O   0  0  0  0  0  0  0  0  0  0  0  0 
    0.3413   -0.6949    0.5074 H   0  0  0  0  0  0  0  0  0  0  0  0 
    0.3418    0.4404   -0.9522 H   0  0  0  0  0  0  0  0  0  0  0  0 
    2.4363   -1.1983    1.6725 H   0  0  0  0  0  0  0  0  0  0  0  0 
    3.6753    0.0712    1.5071 H   0  0  0  0  0  0  0  0  0  0  0  0 
    3.7609   -1.3675    0.5005 H   0  0  0  0  0  0  0  0  0  0  0  0 
    2.3266    1.3251   -1.8252 H   0  0  0  0  0  0  0  0  0  0  0  0 
    3.7685    0.3208   -1.5904 H   0  0  0  0  0  0  0  0  0  0  0  0 
    3.0933    2.4933    0.0640 H   0  0  0  0  0  0  0  0  0  0  0  0 
  1  4  2  0  0  0  0 
  1  6  1  0  0  0  0 
  2  9  1  0  0  0  0 
  2  8  1  0  0  0  0 
  3  5  1  0  0  0  0 
  3  4  1  0  0  0  0 
  4  2  1  0  0  0  0 
  5 13  1  0  0  0  0 
  7  1  1  0  0  0  0 
 10  2  1  0  0  0  0 
 11  3  1  0  0  0  0 
 12  3  1  0  0  0  0 
M  END 
>  <HBA> 
1 
 
>  <HBD> 
1 
 
>  <TPSA> 
20.23 
 
>  <cid> 
10557 
 
>  <dipole> 
1.31 
 
>  <excitation_energy_1> 
6.348 
 
>  <excitation_energy_2> 
6.429 
 
>  <excitation_energy_3> 
6.771 
 
>  <excitation_energy_4> 
6.912 
 
>  <homo_energy> 
-6.885 
 
>  <homo_lumo_gap> 
7.276 
 
>  <logP> 
0.555 
 
>  <lumo_energy> 
0.392 
 
>  <melting_point> 
-23.8 
 
>  <molecular_refractivity> 
22.03 
 
>  <oscillator_strength_1> 
0.0408 
 
>  <oscillator_strength_2> 
0.0239 
 
>  <oscillator_strength_3> 
0.1576 
 
>  <oscillator_strength_4> 
0.1232 
 
>  <open_babel_can_smiles> 
CC(=C)CO 
 
>  <mulliken_charges> 
13 
1   -0.39493 
2   -0.502515 
3   -0.090759 
4   0.188298 
5   -0.609518 
6   0.137445 
7   0.134701 
8   0.149866 
9   0.168746 
10   0.154838 
11   0.126326 
12   0.150266 
13   0.387238 
 
>  <lowdin_charges> 
13 
1   -0.359152 
2   -0.445885 
3   -0.135993 
4   -0.015081 
5   -0.468254 
6   0.157742 
7   0.155631 
8   0.156736 
9   0.16591 
10   0.159243 
11   0.133712 
12   0.152373 
13   0.343017 
 
$$$$ 
 
