PCCDB-ID:  57557 
public computational chemistry database (PCCDB) project, http://pccdb.org 
 
 35 36  0  0  0  0  0  0  0  0999 V2000 
   -2.8040    0.1419    1.5317 C   0  0  0  0  0  0  0  0  0  0  0  0 
    0.1605    0.2935    4.5462 C   0  0  0  0  0  0  0  0  0  0  0  0 
    1.2322    1.1663    4.3894 C   0  0  0  0  0  0  0  0  0  0  0  0 
   -0.8477    0.1982    3.5804 C   0  0  0  0  0  0  0  0  0  0  0  0 
    4.4209    1.2992    1.6069 C   0  0  0  0  0  0  0  0  0  0  0  0 
    5.7352    1.2904    0.8120 C   0  0  0  0  0  0  0  0  0  0  0  0 
    7.8388   -0.0544    0.6101 C   0  0  0  0  0  0  0  0  0  0  0  0 
    6.7308   -1.0057    0.9081 C   0  0  0  0  0  0  0  0  0  0  0  0 
    0.3138    1.8794    2.2757 C   0  0  0  0  0  0  0  0  0  0  0  0 
    2.4528    2.9695    3.0673 C   0  0  0  0  0  0  0  0  0  0  0  0 
    1.3130    1.9727    3.2428 C   0  0  0  0  0  0  0  0  0  0  0  0 
   -0.7666    1.0001    2.4378 C   0  0  0  0  0  0  0  0  0  0  0  0 
    4.5376    1.8260    3.0383 C   0  0  0  0  0  0  0  0  0  0  0  0 
    3.6968    2.5354    3.6777 N   0  0  0  0  0  0  0  0  0  0  0  0 
    6.6998    0.3659    1.4225 N   0  0  0  0  0  0  0  0  0  0  0  0 
    5.6526    1.4435    3.7036 O   0  0  0  0  0  0  0  0  0  0  0  0 
   -1.6809    0.9981    1.4184 O   0  0  0  0  0  0  0  0  0  0  0  0 
   -3.3992    0.3058    0.6310 H   0  0  0  0  0  0  0  0  0  0  0  0 
   -3.4107    0.3836    2.4148 H   0  0  0  0  0  0  0  0  0  0  0  0 
   -2.5066   -0.9145    1.5808 H   0  0  0  0  0  0  0  0  0  0  0  0 
    0.0991   -0.3306    5.4344 H   0  0  0  0  0  0  0  0  0  0  0  0 
    2.0143    1.2299    5.1385 H   0  0  0  0  0  0  0  0  0  0  0  0 
   -1.6706   -0.4921    3.7262 H   0  0  0  0  0  0  0  0  0  0  0  0 
    4.0242    0.2750    1.6526 H   0  0  0  0  0  0  0  0  0  0  0  0 
    3.6825    1.8860    1.0551 H   0  0  0  0  0  0  0  0  0  0  0  0 
    6.1881    2.2890    0.8151 H   0  0  0  0  0  0  0  0  0  0  0  0 
    5.5304    1.0237   -0.2387 H   0  0  0  0  0  0  0  0  0  0  0  0 
    7.9021    0.3406   -0.4033 H   0  0  0  0  0  0  0  0  0  0  0  0 
    8.7883   -0.1308    1.1337 H   0  0  0  0  0  0  0  0  0  0  0  0 
    6.8598   -1.7859    1.6536 H   0  0  0  0  0  0  0  0  0  0  0  0 
    6.0468   -1.2522    0.0963 H   0  0  0  0  0  0  0  0  0  0  0  0 
    0.3467    2.4865    1.3745 H   0  0  0  0  0  0  0  0  0  0  0  0 
    2.1691    3.9097    3.5608 H   0  0  0  0  0  0  0  0  0  0  0  0 
    2.5420    3.2147    1.9960 H   0  0  0  0  0  0  0  0  0  0  0  0 
    6.2398    0.9384    3.0900 H   0  0  0  0  0  0  0  0  0  0  0  0 
  1 20  1  0  0  0  0 
  1 19  1  0  0  0  0 
  2 21  1  0  0  0  0 
  3  2  1  0  0  0  0 
  3 22  1  0  0  0  0 
  4 23  1  0  0  0  0 
  4  2  2  0  0  0  0 
  5 24  1  0  0  0  0 
  5 13  1  0  0  0  0 
  6 26  1  0  0  0  0 
  6 15  1  0  0  0  0 
  6  5  1  0  0  0  0 
  7  8  1  0  0  0  0 
  7 29  1  0  0  0  0 
  7 15  1  0  0  0  0 
  8 15  1  0  0  0  0 
  8 30  1  0  0  0  0 
  9 12  2  0  0  0  0 
  9 11  1  0  0  0  0 
 10 11  1  0  0  0  0 
 10 33  1  0  0  0  0 
 10 14  1  0  0  0  0 
 11  3  2  0  0  0  0 
 12  4  1  0  0  0  0 
 13 14  2  0  0  0  0 
 13 16  1  0  0  0  0 
 17  1  1  0  0  0  0 
 17 12  1  0  0  0  0 
 18  1  1  0  0  0  0 
 25  5  1  0  0  0  0 
 27  6  1  0  0  0  0 
 28  7  1  0  0  0  0 
 31  8  1  0  0  0  0 
 32  9  1  0  0  0  0 
 34 10  1  0  0  0  0 
 35 16  1  0  0  0  0 
M  END 
>  <HBA> 
4 
 
>  <HBD> 
1 
 
>  <TPSA> 
41.34 
 
>  <cid> 
57557 
 
>  <dipole> 
5.79 
 
>  <excitation_energy_1> 
4.961 
 
>  <excitation_energy_2> 
5.187 
 
>  <excitation_energy_3> 
5.335 
 
>  <excitation_energy_4> 
5.453 
 
>  <homo_energy> 
-5.63 
 
>  <homo_lumo_gap> 
5.921 
 
>  <logP> 
1.346 
 
>  <lumo_energy> 
0.291 
 
>  <melting_point> 
69.8 
 
>  <molecular_refractivity> 
69.63 
 
>  <oscillator_strength_1> 
0.0422 
 
>  <oscillator_strength_2> 
0.004 
 
>  <oscillator_strength_3> 
0.0025 
 
>  <oscillator_strength_4> 
0.0056 
 
>  <open_babel_can_smiles> 
COc1cccc(c1)C/N=C(\CCN1CC1)/O 
 
>  <mulliken_charges> 
35 
1   -0.211732 
2   -0.139813 
3   -0.174738 
4   -0.200152 
5   -0.365322 
6   -0.14443 
7   -0.187819 
8   -0.192438 
9   -0.240329 
10   -0.230667 
11   0.144992 
12   0.378551 
13   0.500837 
14   -0.428274 
15   -0.402503 
16   -0.610863 
17   -0.511246 
18   0.165411 
19   0.150813 
20   0.148027 
21   0.125871 
22   0.151033 
23   0.124696 
24   0.178326 
25   0.165437 
26   0.168443 
27   0.13228 
28   0.158546 
29   0.173979 
30   0.174731 
31   0.160072 
32   0.121605 
33   0.161961 
34   0.119348 
35   0.435366 
 
>  <lowdin_charges> 
35 
1   -0.276731 
2   -0.146512 
3   -0.183761 
4   -0.223076 
5   -0.31786 
6   -0.19948 
7   -0.232493 
8   -0.239294 
9   -0.201169 
10   -0.198135 
11   -0.001743 
12   0.100297 
13   0.132757 
14   -0.224994 
15   -0.196572 
16   -0.384899 
17   -0.203757 
18   0.160754 
19   0.14476 
20   0.140982 
21   0.155851 
22   0.170758 
23   0.159505 
24   0.168258 
25   0.168298 
26   0.155833 
27   0.133813 
28   0.155749 
29   0.167532 
30   0.168333 
31   0.156762 
32   0.15885 
33   0.156776 
34   0.124974 
35   0.349633 
 
$$$$ 
 
