PCCDB-ID:  46502 
public computational chemistry database (PCCDB) project, http://pccdb.org 
 
 35 35  0  0  1  0  0  0  0  0999 V2000 
    1.5276    2.8661   -5.8670 C   0  0  0  0  0  0  0  0  0  0  0  0 
    8.6403    0.7558   -1.4022 C   0  0  0  0  0  0  0  0  0  0  0  0 
    8.2063    3.6974   -5.2392 C   0  0  0  0  0  0  0  0  0  0  0  0 
    3.0291    2.5570   -5.9973 C   0  0  0  0  0  0  0  0  0  0  0  0 
    7.1194    0.9099   -1.4984 C   0  0  0  0  0  0  0  0  0  0  0  0 
    3.7064    2.4021   -4.6637 C   0  0  0  0  0  0  0  0  0  0  0  0 
    4.3348    1.3018   -4.2384 C   0  0  0  0  0  0  0  0  0  0  0  0 
    4.9991    1.1769   -2.8940 C   0  0  0  0  0  0  0  0  0  0  0  0 
    6.9937   -0.0656   -3.8308 C   0  0  0  0  0  0  0  0  0  0  0  0 
    7.0738    2.4263   -3.4876 C   0  0  0  0  0  0  0  0  0  0  0  0 
    8.0729    1.2369   -5.4159 C   0  0  0  0  0  0  0  0  0  0  0  0 
    6.5660    1.0845   -2.9442 C   0  0  2  0  0  0  0  0  0  0  0  0 
    7.6576   -0.0004   -4.9201 N   0  0  0  0  0  0  0  0  0  0  0  0 
    7.7480    2.4160   -4.6896 N   0  0  0  0  0  0  0  0  0  0  0  0 
    6.6291   -1.3028   -3.4374 O   0  0  0  0  0  0  0  0  0  0  0  0 
    6.8628    3.4568   -2.8646 O   0  0  0  0  0  0  0  0  0  0  0  0 
    8.7044    1.3268   -6.4482 O   0  0  0  0  0  0  0  0  0  0  0  0 
    1.0711    3.0090   -6.8526 H   0  0  0  0  0  0  0  0  0  0  0  0 
    1.3608    3.7804   -5.2851 H   0  0  0  0  0  0  0  0  0  0  0  0 
    1.0005    2.0489   -5.3624 H   0  0  0  0  0  0  0  0  0  0  0  0 
    8.9420    0.6491   -0.3551 H   0  0  0  0  0  0  0  0  0  0  0  0 
    9.1544    1.6359   -1.8035 H   0  0  0  0  0  0  0  0  0  0  0  0 
    9.0001   -0.1261   -1.9439 H   0  0  0  0  0  0  0  0  0  0  0  0 
    7.5362    4.4800   -4.8865 H   0  0  0  0  0  0  0  0  0  0  0  0 
    8.1999    3.6278   -6.3253 H   0  0  0  0  0  0  0  0  0  0  0  0 
    9.2248    3.9177   -4.9035 H   0  0  0  0  0  0  0  0  0  0  0  0 
    3.5108    3.3763   -6.5513 H   0  0  0  0  0  0  0  0  0  0  0  0 
    3.1745    1.6487   -6.5950 H   0  0  0  0  0  0  0  0  0  0  0  0 
    6.7966    1.7919   -0.9375 H   0  0  0  0  0  0  0  0  0  0  0  0 
    6.6276    0.0470   -1.0265 H   0  0  0  0  0  0  0  0  0  0  0  0 
    3.6589    3.2680   -3.9996 H   0  0  0  0  0  0  0  0  0  0  0  0 
    4.3909    0.4324   -4.8954 H   0  0  0  0  0  0  0  0  0  0  0  0 
    4.6201    0.2892   -2.3650 H   0  0  0  0  0  0  0  0  0  0  0  0 
    4.7630    2.0439   -2.2700 H   0  0  0  0  0  0  0  0  0  0  0  0 
    6.1414   -1.2523   -2.5997 H   0  0  0  0  0  0  0  0  0  0  0  0 
  1 20  1  0  0  0  0 
  1 19  1  0  0  0  0 
  2 21  1  0  0  0  0 
  3 26  1  0  0  0  0 
  3 24  1  0  0  0  0 
  3 14  1  0  0  0  0 
  4  1  1  0  0  0  0 
  4  6  1  0  0  0  0 
  5  2  1  0  0  0  0 
  5 30  1  0  0  0  0 
  5 29  1  0  0  0  0 
  6  7  2  0  0  0  0 
  6 31  1  0  0  0  0 
  7  8  1  0  0  0  0 
  8 33  1  0  0  0  0 
  8 34  1  0  0  0  0 
  9 15  1  0  0  0  0 
  9 12  1  0  0  0  0 
 10 12  1  0  0  0  0 
 10 16  2  0  0  0  0 
 11 13  1  0  0  0  0 
 11 14  1  0  0  0  0 
 12  8  1  1  0  0  0 
 12  5  1  0  0  0  0 
 13  9  2  0  0  0  0 
 14 10  1  0  0  0  0 
 15 35  1  0  0  0  0 
 17 11  2  0  0  0  0 
 18  1  1  0  0  0  0 
 22  2  1  0  0  0  0 
 23  2  1  0  0  0  0 
 25  3  1  0  0  0  0 
 27  4  1  0  0  0  0 
 28  4  1  0  0  0  0 
 32  7  1  0  0  0  0 
M  END 
>  <HBA> 
5 
 
>  <HBD> 
1 
 
>  <TPSA> 
66.48 
 
>  <cid> 
46502 
 
>  <dipole> 
4.85 
 
>  <excitation_energy_1> 
4.504 
 
>  <excitation_energy_2> 
4.722 
 
>  <excitation_energy_3> 
4.877 
 
>  <excitation_energy_4> 
5.106 
 
>  <homo_energy> 
-7.021 
 
>  <homo_lumo_gap> 
5.627 
 
>  <logP> 
1.714 
 
>  <lumo_energy> 
-1.393 
 
>  <melting_point> 
124.83 
 
>  <molecular_refractivity> 
71.47 
 
>  <oscillator_strength_1> 
0.0007 
 
>  <oscillator_strength_2> 
0.0042 
 
>  <oscillator_strength_3> 
0.0005 
 
>  <oscillator_strength_4> 
0.0112 
 
>  <open_babel_can_smiles> 
CC/C=C/C[C@@]1(CC)C(=NC(=O)N(C1=O)C)O 
 
>  <mulliken_charges> 
35 
1   -0.442535 
2   -0.46918 
3   -0.319702 
4   -0.301438 
5   -0.270807 
6   -0.080026 
7   -0.121255 
8   -0.326791 
9   0.556509 
10   0.661435 
11   0.705061 
12   -0.140515 
13   -0.494999 
14   -0.516587 
15   -0.5725 
16   -0.521562 
17   -0.466374 
18   0.149521 
19   0.146698 
20   0.151072 
21   0.16058 
22   0.169073 
23   0.167162 
24   0.187895 
25   0.194175 
26   0.173704 
27   0.15106 
28   0.147178 
29   0.186761 
30   0.121568 
31   0.134671 
32   0.14099 
33   0.131263 
34   0.185687 
35   0.422207 
 
>  <lowdin_charges> 
35 
1   -0.44314 
2   -0.452624 
3   -0.348722 
4   -0.270526 
5   -0.268924 
6   -0.145625 
7   -0.193807 
8   -0.263264 
9   0.159587 
10   0.170789 
11   0.183401 
12   -0.056469 
13   -0.183019 
14   -0.086332 
15   -0.321776 
16   -0.285899 
17   -0.244736 
18   0.152911 
19   0.14942 
20   0.152232 
21   0.160465 
22   0.161352 
23   0.158917 
24   0.176472 
25   0.177082 
26   0.161867 
27   0.154374 
28   0.150243 
29   0.172121 
30   0.136304 
31   0.154035 
32   0.156186 
33   0.142678 
34   0.17327 
35   0.361155 
 
$$$$ 
 
