PCCDB-ID:  32412 
public computational chemistry database (PCCDB) project, http://pccdb.org 
 
 15 14  0  0  0  0  0  0  0  0999 V2000 
    1.7649   -0.1306   -0.3572 C   0  0  0  0  0  0  0  0  0  0  0  0 
    0.6721    0.9070   -0.6118 C   0  0  0  0  0  0  0  0  0  0  0  0 
   -1.7585    1.0708   -0.4378 C   0  0  0  0  0  0  0  0  0  0  0  0 
    1.6758   -0.6123    1.0306 N   0  0  0  0  0  0  0  0  0  0  0  0 
   -0.6150    0.3294   -0.2499 N   0  0  0  0  0  0  0  0  0  0  0  0 
   -1.8066    2.1274   -1.0274 O   0  0  0  0  0  0  0  0  0  0  0  0 
   -2.8934    0.5007    0.0734 O   0  0  0  0  0  0  0  0  0  0  0  0 
    2.7408    0.3071   -0.6229 H   0  0  0  0  0  0  0  0  0  0  0  0 
    1.6013   -0.9909   -1.0160 H   0  0  0  0  0  0  0  0  0  0  0  0 
    0.6533    1.1949   -1.6666 H   0  0  0  0  0  0  0  0  0  0  0  0 
    0.8722    1.8244   -0.0356 H   0  0  0  0  0  0  0  0  0  0  0  0 
    2.0233    0.1023    1.6695 H   0  0  0  0  0  0  0  0  0  0  0  0 
    2.2713   -1.4273    1.1610 H   0  0  0  0  0  0  0  0  0  0  0  0 
   -0.5427   -0.2818    0.5593 H   0  0  0  0  0  0  0  0  0  0  0  0 
   -2.7168   -0.4159    0.3407 H   0  0  0  0  0  0  0  0  0  0  0  0 
  1  4  1  0  0  0  0 
  2  1  1  0  0  0  0 
  2  5  1  0  0  0  0 
  2 11  1  0  0  0  0 
  3  5  1  0  0  0  0 
  3  7  1  0  0  0  0 
  4 13  1  0  0  0  0 
  4 12  1  0  0  0  0 
  5 14  1  0  0  0  0 
  6  3  2  0  0  0  0 
  7 15  1  0  0  0  0 
  8  1  1  0  0  0  0 
  9  1  1  0  0  0  0 
 10  2  1  0  0  0  0 
M  END 
>  <HBA> 
4 
 
>  <HBD> 
3 
 
>  <TPSA> 
75.35 
 
>  <cid> 
32412 
 
>  <dipole> 
6.12 
 
>  <excitation_energy_1> 
5.875 
 
>  <excitation_energy_2> 
6.073 
 
>  <excitation_energy_3> 
6.449 
 
>  <excitation_energy_4> 
6.559 
 
>  <homo_energy> 
-6.789 
 
>  <homo_lumo_gap> 
8.313 
 
>  <logP> 
0.304 
 
>  <lumo_energy> 
1.524 
 
>  <melting_point> 
144.35 
 
>  <molecular_refractivity> 
24.2 
 
>  <oscillator_strength_1> 
0.0042 
 
>  <oscillator_strength_2> 
0.0258 
 
>  <oscillator_strength_3> 
0.026 
 
>  <oscillator_strength_4> 
0.0076 
 
>  <open_babel_can_smiles> 
NCCNC(=O)O 
 
>  <mulliken_charges> 
15 
1   -0.168656 
2   -0.099744 
3   0.74183 
4   -0.734421 
5   -0.626999 
6   -0.486655 
7   -0.591862 
8   0.135049 
9   0.157131 
10   0.174375 
11   0.146825 
12   0.305947 
13   0.311012 
14   0.336372 
15   0.399793 
 
>  <lowdin_charges> 
15 
1   -0.212209 
2   -0.191458 
3   0.201327 
4   -0.564127 
5   -0.3184 
6   -0.289633 
7   -0.373722 
8   0.133456 
9   0.151538 
10   0.164247 
11   0.140354 
12   0.26047 
13   0.264032 
14   0.280897 
15   0.353229 
 
$$$$ 
 
