PCCDB-ID:  9005 
public computational chemistry database (PCCDB) project, http://pccdb.org 
 
 17 16  0  0  0  0  0  0  0  0999 V2000 
    3.9157    2.1910   -1.0532 C   0  0  0  0  0  0  0  0  0  0  0  0 
    2.2710   -0.9881   -2.8694 C   0  0  0  0  0  0  0  0  0  0  0  0 
    5.9084   -1.0370   -2.6381 C   0  0  0  0  0  0  0  0  0  0  0  0 
    4.0169   -0.1208   -1.5263 C   0  0  0  0  0  0  0  0  0  0  0  0 
    4.7264    1.0554   -1.3239 O   0  0  0  0  0  0  0  0  0  0  0  0 
    3.2198    0.0510   -2.6766 O   0  0  0  0  0  0  0  0  0  0  0  0 
    4.8999   -1.1835   -1.6332 O   0  0  0  0  0  0  0  0  0  0  0  0 
    4.5995    3.0041   -0.7996 H   0  0  0  0  0  0  0  0  0  0  0  0 
    3.2474    2.0060   -0.1983 H   0  0  0  0  0  0  0  0  0  0  0  0 
    3.3122    2.4717   -1.9226 H   0  0  0  0  0  0  0  0  0  0  0  0 
    1.6897   -0.7215   -3.7550 H   0  0  0  0  0  0  0  0  0  0  0  0 
    1.5912   -1.0748   -2.0077 H   0  0  0  0  0  0  0  0  0  0  0  0 
    2.7590   -1.9572   -3.0294 H   0  0  0  0  0  0  0  0  0  0  0  0 
    6.3987   -2.0102   -2.7113 H   0  0  0  0  0  0  0  0  0  0  0  0 
    6.6402   -0.2753   -2.3521 H   0  0  0  0  0  0  0  0  0  0  0  0 
    5.4680   -0.7721   -3.6053 H   0  0  0  0  0  0  0  0  0  0  0  0 
    3.3731   -0.3606   -0.6612 H   0  0  0  0  0  0  0  0  0  0  0  0 
  1  8  1  0  0  0  0 
  1  9  1  0  0  0  0 
  2  6  1  0  0  0  0 
  2 12  1  0  0  0  0 
  3 15  1  0  0  0  0 
  3  7  1  0  0  0  0 
  4  5  1  0  0  0  0 
  4 17  1  0  0  0  0 
  5  1  1  0  0  0  0 
  6  4  1  0  0  0  0 
  7  4  1  0  0  0  0 
 10  1  1  0  0  0  0 
 11  2  1  0  0  0  0 
 13  2  1  0  0  0  0 
 14  3  1  0  0  0  0 
 16  3  1  0  0  0  0 
M  END 
>  <HBA> 
3 
 
>  <HBD> 
0 
 
>  <TPSA> 
27.69 
 
>  <cid> 
9005 
 
>  <dipole> 
1.25 
 
>  <excitation_energy_1> 
6.967 
 
>  <excitation_energy_2> 
7.136 
 
>  <excitation_energy_3> 
7.252 
 
>  <excitation_energy_4> 
7.391 
 
>  <homo_energy> 
-7.227 
 
>  <homo_lumo_gap> 
9.859 
 
>  <logP> 
0.209 
 
>  <lumo_energy> 
2.631 
 
>  <melting_point> 
-52.08 
 
>  <molecular_refractivity> 
24.6 
 
>  <oscillator_strength_1> 
0.0151 
 
>  <oscillator_strength_2> 
0.0088 
 
>  <oscillator_strength_3> 
0.0224 
 
>  <oscillator_strength_4> 
0.0069 
 
>  <open_babel_can_smiles> 
COC(OC)OC 
 
>  <mulliken_charges> 
17 
1   -0.203188 
2   -0.2092 
3   -0.21791 
4   0.584155 
5   -0.479319 
6   -0.477572 
7   -0.474383 
8   0.160249 
9   0.131302 
10   0.162278 
11   0.160468 
12   0.134589 
13   0.154689 
14   0.152796 
15   0.162085 
16   0.153175 
17   0.105785 
 
>  <lowdin_charges> 
17 
1   -0.281745 
2   -0.283922 
3   -0.285543 
4   0.167027 
5   -0.247122 
6   -0.271601 
7   -0.249271 
8   0.158032 
9   0.135574 
10   0.150221 
11   0.157586 
12   0.135849 
13   0.144566 
14   0.153637 
15   0.151496 
16   0.146612 
17   0.118604 
 
$$$$ 
 
