PCCDB-ID:  7583 
public computational chemistry database (PCCDB) project, http://pccdb.org 
 
 23 24  0  0  0  0  0  0  0  0999 V2000 
   -1.7599   -2.9248    2.4197 C   0  0  0  0  0  0  0  0  0  0  0  0 
    2.4369   -5.0128   -3.3856 C   0  0  0  0  0  0  0  0  0  0  0  0 
   -1.9189   -1.8006    1.6063 C   0  0  0  0  0  0  0  0  0  0  0  0 
   -0.7355   -3.8330    2.1445 C   0  0  0  0  0  0  0  0  0  0  0  0 
    1.1262   -5.1790   -2.9334 C   0  0  0  0  0  0  0  0  0  0  0  0 
    3.1832   -3.9184   -2.9433 C   0  0  0  0  0  0  0  0  0  0  0  0 
   -1.0688   -1.5877    0.5217 C   0  0  0  0  0  0  0  0  0  0  0  0 
    0.1279   -3.6282    1.0676 C   0  0  0  0  0  0  0  0  0  0  0  0 
    0.5573   -4.2646   -2.0462 C   0  0  0  0  0  0  0  0  0  0  0  0 
    2.6304   -3.0013   -2.0499 C   0  0  0  0  0  0  0  0  0  0  0  0 
   -0.0490   -2.5039    0.2554 C   0  0  0  0  0  0  0  0  0  0  0  0 
    1.3192   -3.1790   -1.6033 C   0  0  0  0  0  0  0  0  0  0  0  0 
    0.8060   -2.1914   -0.7843 O   0  0  0  0  0  0  0  0  0  0  0  0 
   -2.4264   -3.0907    3.2611 H   0  0  0  0  0  0  0  0  0  0  0  0 
    2.8714   -5.7282   -4.0779 H   0  0  0  0  0  0  0  0  0  0  0  0 
   -2.7114   -1.0860    1.8116 H   0  0  0  0  0  0  0  0  0  0  0  0 
   -0.5977   -4.7064    2.7764 H   0  0  0  0  0  0  0  0  0  0  0  0 
    0.5340   -6.0225   -3.2784 H   0  0  0  0  0  0  0  0  0  0  0  0 
    4.2034   -3.7774   -3.2898 H   0  0  0  0  0  0  0  0  0  0  0  0 
   -1.1766   -0.7215   -0.1235 H   0  0  0  0  0  0  0  0  0  0  0  0 
    0.9312   -4.3269    0.8586 H   0  0  0  0  0  0  0  0  0  0  0  0 
   -0.4647   -4.3865   -1.7030 H   0  0  0  0  0  0  0  0  0  0  0  0 
    3.1940   -2.1452   -1.6927 H   0  0  0  0  0  0  0  0  0  0  0  0 
  1 14  1  0  0  0  0 
  2  6  2  0  0  0  0 
  2  5  1  0  0  0  0 
  3 16  1  0  0  0  0 
  3  1  2  0  0  0  0 
  4  1  1  0  0  0  0 
  4 17  1  0  0  0  0 
  5  9  2  0  0  0  0 
  6 10  1  0  0  0  0 
  7  3  1  0  0  0  0 
  8  4  2  0  0  0  0 
  9 22  1  0  0  0  0 
  9 12  1  0  0  0  0 
 10 23  1  0  0  0  0 
 10 12  2  0  0  0  0 
 11  7  2  0  0  0  0 
 11  8  1  0  0  0  0 
 12 13  1  0  0  0  0 
 13 11  1  0  0  0  0 
 15  2  1  0  0  0  0 
 18  5  1  0  0  0  0 
 19  6  1  0  0  0  0 
 20  7  1  0  0  0  0 
 21  8  1  0  0  0  0 
M  END 
>  <HBA> 
1 
 
>  <HBD> 
0 
 
>  <TPSA> 
9.23 
 
>  <cid> 
7583 
 
>  <dipole> 
0.97 
 
>  <excitation_energy_1> 
4.729 
 
>  <excitation_energy_2> 
5.046 
 
>  <excitation_energy_3> 
5.093 
 
>  <excitation_energy_4> 
5.488 
 
>  <homo_energy> 
-5.886 
 
>  <homo_lumo_gap> 
5.66 
 
>  <logP> 
3.479 
 
>  <lumo_energy> 
-0.226 
 
>  <melting_point> 
40.75 
 
>  <molecular_refractivity> 
52.96 
 
>  <oscillator_strength_1> 
0.015 
 
>  <oscillator_strength_2> 
0.2475 
 
>  <oscillator_strength_3> 
0.0115 
 
>  <oscillator_strength_4> 
0.0006 
 
>  <open_babel_can_smiles> 
c1ccc(cc1)Oc1ccccc1 
 
>  <mulliken_charges> 
23 
1   -0.128715 
2   -0.128535 
3   -0.136913 
4   -0.137995 
5   -0.138254 
6   -0.137338 
7   -0.172569 
8   -0.168038 
9   -0.167451 
10   -0.172102 
11   0.345312 
12   0.344585 
13   -0.57526 
14   0.129036 
15   0.129154 
16   0.133595 
17   0.133786 
18   0.133876 
19   0.133702 
20   0.141686 
21   0.148329 
22   0.148385 
23   0.141722 
 
>  <lowdin_charges> 
23 
1   -0.171431 
2   -0.172051 
3   -0.148051 
4   -0.148086 
5   -0.148808 
6   -0.146332 
7   -0.180422 
8   -0.190652 
9   -0.188652 
10   -0.180529 
11   0.102509 
12   0.101214 
13   -0.163296 
14   0.158794 
15   0.159552 
16   0.160534 
17   0.15995 
18   0.160451 
19   0.158891 
20   0.168466 
21   0.170357 
22   0.16874 
23   0.168852 
 
$$$$ 
 
