PCCDB-ID:  29198 
public computational chemistry database (PCCDB) project, http://pccdb.org 
 
 22 21  0  0  1  0  0  0  0  0999 V2000 
    0.5515   -1.1433    0.9296 C   0  0  0  0  0  0  0  0  0  0  0  0 
    5.8099   -0.6867    3.5109 C   0  0  0  0  0  0  0  0  0  0  0  0 
    4.6765   -2.8412    3.0184 C   0  0  0  0  0  0  0  0  0  0  0  0 
    5.1130    0.4280    0.8884 C   0  0  0  0  0  0  0  0  0  0  0  0 
    2.0354   -1.3445    0.8062 C   0  0  0  0  0  0  0  0  0  0  0  0 
    2.9635   -0.6939    1.5130 C   0  0  0  0  0  0  0  0  0  0  0  0 
    5.0426   -1.4129    2.6914 C   0  0  0  0  0  0  0  0  0  0  0  0 
    4.4631   -0.8766    1.3819 C   0  0  2  0  0  0  0  0  0  0  0  0 
    0.1128   -0.8189   -0.0239 H   0  0  0  0  0  0  0  0  0  0  0  0 
    0.3094   -0.3899    1.6868 H   0  0  0  0  0  0  0  0  0  0  0  0 
    0.0435   -2.0774    1.2054 H   0  0  0  0  0  0  0  0  0  0  0  0 
    6.1874   -1.1023    4.4421 H   0  0  0  0  0  0  0  0  0  0  0  0 
    6.0948    0.3381    3.2950 H   0  0  0  0  0  0  0  0  0  0  0  0 
    5.0854   -3.1513    3.9848 H   0  0  0  0  0  0  0  0  0  0  0  0 
    5.0598   -3.5289    2.2513 H   0  0  0  0  0  0  0  0  0  0  0  0 
    3.5881   -2.9759    3.0429 H   0  0  0  0  0  0  0  0  0  0  0  0 
    4.7116    0.6973   -0.0939 H   0  0  0  0  0  0  0  0  0  0  0  0 
    6.2002    0.3224    0.8038 H   0  0  0  0  0  0  0  0  0  0  0  0 
    4.9051    1.2627    1.5680 H   0  0  0  0  0  0  0  0  0  0  0  0 
    2.3591   -2.0846    0.0712 H   0  0  0  0  0  0  0  0  0  0  0  0 
    2.6510    0.0472    2.2525 H   0  0  0  0  0  0  0  0  0  0  0  0 
    4.6328   -1.6474    0.6144 H   0  0  0  0  0  0  0  0  0  0  0  0 
  1 11  1  0  0  0  0 
  1 10  1  0  0  0  0 
  2 12  1  0  0  0  0 
  3 16  1  0  0  0  0 
  3 14  1  0  0  0  0 
  4  8  1  0  0  0  0 
  4 19  1  0  0  0  0 
  5  1  1  0  0  0  0 
  5  6  2  0  0  0  0 
  6 21  1  0  0  0  0 
  7  3  1  0  0  0  0 
  7  2  2  0  0  0  0 
  8 22  1  6  0  0  0 
  8  6  1  0  0  0  0 
  8  7  1  0  0  0  0 
  9  1  1  0  0  0  0 
 13  2  1  0  0  0  0 
 15  3  1  0  0  0  0 
 17  4  1  0  0  0  0 
 18  4  1  0  0  0  0 
 20  5  1  0  0  0  0 
M  END 
>  <HBA> 
0 
 
>  <HBD> 
0 
 
>  <TPSA> 
0.0 
 
>  <cid> 
29198 
 
>  <dipole> 
0.63 
 
>  <excitation_energy_1> 
5.942 
 
>  <excitation_energy_2> 
6.115 
 
>  <excitation_energy_3> 
6.203 
 
>  <excitation_energy_4> 
6.272 
 
>  <homo_energy> 
-6.43 
 
>  <homo_lumo_gap> 
6.844 
 
>  <logP> 
2.775 
 
>  <lumo_energy> 
0.414 
 
>  <melting_point> 
-35.28 
 
>  <molecular_refractivity> 
39.62 
 
>  <oscillator_strength_1> 
0.1054 
 
>  <oscillator_strength_2> 
0.0194 
 
>  <oscillator_strength_3> 
0.0787 
 
>  <oscillator_strength_4> 
0.0354 
 
>  <open_babel_can_smiles> 
C/C=C/[C@H](C(=C)C)C 
 
>  <mulliken_charges> 
22 
1   -0.486783 
2   -0.406065 
3   -0.508662 
4   -0.454649 
5   -0.096156 
6   -0.080989 
7   0.224853 
8   -0.182163 
9   0.154252 
10   0.152901 
11   0.154074 
12   0.129333 
13   0.134232 
14   0.149039 
15   0.148355 
16   0.161064 
17   0.147543 
18   0.149046 
19   0.145633 
20   0.118181 
21   0.118756 
22   0.128206 
 
>  <lowdin_charges> 
22 
1   -0.440088 
2   -0.368384 
3   -0.442216 
4   -0.440887 
5   -0.169775 
6   -0.165196 
7   0.009239 
8   -0.119894 
9   0.156171 
10   0.155554 
11   0.156207 
12   0.153825 
13   0.154829 
14   0.154641 
15   0.154216 
16   0.158405 
17   0.153387 
18   0.150623 
19   0.149451 
20   0.146155 
21   0.148303 
22   0.145432 
 
$$$$ 
 
