PCCDB-ID:  62767 
public computational chemistry database (PCCDB) project, http://pccdb.org 
 
 26 28  0  0  0  0  0  0  0  0999 V2000 
    1.0253   -0.1263   -0.0384 C   0  0  0  0  0  0  0  0  0  0  0  0 
    7.9319    1.8671   -0.0234 C   0  0  0  0  0  0  0  0  0  0  0  0 
    2.5353    2.4634   -0.0360 C   0  0  0  0  0  0  0  0  0  0  0  0 
    3.2145    3.6708   -0.0362 C   0  0  0  0  0  0  0  0  0  0  0  0 
    3.2695   -1.2088   -0.0335 C   0  0  0  0  0  0  0  0  0  0  0  0 
    6.7325    4.1314   -0.0287 C   0  0  0  0  0  0  0  0  0  0  0  0 
    2.5297   -0.0687   -0.0346 C   0  0  0  0  0  0  0  0  0  0  0  0 
    6.7391    2.7738   -0.0267 C   0  0  0  0  0  0  0  0  0  0  0  0 
    3.2122    1.2150   -0.0331 C   0  0  0  0  0  0  0  0  0  0  0  0 
    4.6088    3.6022   -0.0327 C   0  0  0  0  0  0  0  0  0  0  0  0 
    4.7213   -1.2179   -0.0310 C   0  0  0  0  0  0  0  0  0  0  0  0 
    5.3378    2.4036   -0.0293 C   0  0  0  0  0  0  0  0  0  0  0  0 
    4.6201    1.1984   -0.0296 C   0  0  0  0  0  0  0  0  0  0  0  0 
    5.4399   -2.1896   -0.0319 O   0  0  0  0  0  0  0  0  0  0  0  0 
    5.4602    4.6641   -0.0322 O   0  0  0  0  0  0  0  0  0  0  0  0 
    5.3358    0.0415   -0.0265 O   0  0  0  0  0  0  0  0  0  0  0  0 
    0.6725   -1.1609   -0.0403 H   0  0  0  0  0  0  0  0  0  0  0  0 
    0.6122    0.3768   -0.9213 H   0  0  0  0  0  0  0  0  0  0  0  0 
    0.6079    0.3750    0.8435 H   0  0  0  0  0  0  0  0  0  0  0  0 
    8.8610    2.4457   -0.0260 H   0  0  0  0  0  0  0  0  0  0  0  0 
    7.9340    1.2099   -0.8998 H   0  0  0  0  0  0  0  0  0  0  0  0 
    7.9346    1.2168    0.8581 H   0  0  0  0  0  0  0  0  0  0  0  0 
    1.4507    2.4705   -0.0378 H   0  0  0  0  0  0  0  0  0  0  0  0 
    2.6972    4.6236   -0.0396 H   0  0  0  0  0  0  0  0  0  0  0  0 
    2.8049   -2.1887   -0.0350 H   0  0  0  0  0  0  0  0  0  0  0  0 
    7.5308    4.8589   -0.0278 H   0  0  0  0  0  0  0  0  0  0  0  0 
  1  7  1  0  0  0  0 
  1 19  1  0  0  0  0 
  2 22  1  0  0  0  0 
  3  9  1  0  0  0  0 
  4  3  2  0  0  0  0 
  4 10  1  0  0  0  0 
  5 11  1  0  0  0  0 
  6 26  1  0  0  0  0 
  6  8  2  0  0  0  0 
  7  5  2  0  0  0  0 
  7  9  1  0  0  0  0 
  8  2  1  0  0  0  0 
  9 13  2  0  0  0  0 
 10 15  1  0  0  0  0 
 10 12  2  0  0  0  0 
 11 16  1  0  0  0  0 
 12  8  1  0  0  0  0 
 13 12  1  0  0  0  0 
 13 16  1  0  0  0  0 
 14 11  2  0  0  0  0 
 15  6  1  0  0  0  0 
 17  1  1  0  0  0  0 
 18  1  1  0  0  0  0 
 20  2  1  0  0  0  0 
 21  2  1  0  0  0  0 
 23  3  1  0  0  0  0 
 24  4  1  0  0  0  0 
 25  5  1  0  0  0  0 
M  END 
>  <HBA> 
3 
 
>  <HBD> 
0 
 
>  <TPSA> 
43.35 
 
>  <cid> 
62767 
 
>  <dipole> 
3.93 
 
>  <excitation_energy_1> 
3.811 
 
>  <excitation_energy_2> 
4.32 
 
>  <excitation_energy_3> 
4.639 
 
>  <excitation_energy_4> 
4.838 
 
>  <homo_energy> 
-5.968 
 
>  <homo_lumo_gap> 
4.425 
 
>  <logP> 
3.156 
 
>  <lumo_energy> 
-1.543 
 
>  <melting_point> 
136.57 
 
>  <molecular_refractivity> 
62.19 
 
>  <oscillator_strength_1> 
0.0613 
 
>  <oscillator_strength_2> 
0.1215 
 
>  <oscillator_strength_3> 
0.0 
 
>  <oscillator_strength_4> 
0.1487 
 
>  <open_babel_can_smiles> 
O=c1cc(C)c2c(o1)c1c(C)coc1cc2 
 
>  <mulliken_charges> 
26 
1   -0.538645 
2   -0.512689 
3   -0.222026 
4   -0.17656 
5   -0.304617 
6   0.011637 
7   0.195386 
8   0.116445 
9   0.102756 
10   0.316924 
11   0.606244 
12   0.044623 
13   0.209216 
14   -0.476327 
15   -0.480086 
16   -0.527004 
17   0.171839 
18   0.175356 
19   0.175359 
20   0.150938 
21   0.178928 
22   0.178746 
23   0.137979 
24   0.150881 
25   0.153211 
26   0.161485 
 
>  <lowdin_charges> 
26 
1   -0.441798 
2   -0.433099 
3   -0.152419 
4   -0.181465 
5   -0.224837 
6   -0.076013 
7   0.04653 
8   -0.032378 
9   -0.05802 
10   0.094247 
11   0.197192 
12   -0.055274 
13   0.11226 
14   -0.247988 
15   -0.10762 
16   -0.135077 
17   0.166072 
18   0.169444 
19   0.169453 
20   0.158287 
21   0.171433 
22   0.171305 
23   0.163728 
24   0.173835 
25   0.176914 
26   0.175286 
 
$$$$ 
 
