PCCDB-ID:  28009 
public computational chemistry database (PCCDB) project, http://pccdb.org 
 
 35 37  0  0  0  0  0  0  0  0999 V2000 
    1.1393   -0.4026   -0.3640 C   0  0  0  0  0  0  0  0  0  0  0  0 
    2.5971   -0.1207    1.6765 C   0  0  0  0  0  0  0  0  0  0  0  0 
    3.3993    3.7509   -1.8023 C   0  0  0  0  0  0  0  0  0  0  0  0 
    3.4782    3.7353   -0.2762 C   0  0  0  0  0  0  0  0  0  0  0  0 
    4.0583    2.4951   -2.3849 C   0  0  0  0  0  0  0  0  0  0  0  0 
    2.7370    2.5153    0.2852 C   0  0  0  0  0  0  0  0  0  0  0  0 
    4.8950   -1.4574   -4.0940 C   0  0  0  0  0  0  0  0  0  0  0  0 
    4.5148   -0.2163   -3.5870 C   0  0  0  0  0  0  0  0  0  0  0  0 
    4.2635   -2.4894   -1.9949 C   0  0  0  0  0  0  0  0  0  0  0  0 
    4.7750   -2.5960   -3.2897 C   0  0  0  0  0  0  0  0  0  0  0  0 
    3.6669    1.2191   -1.6624 C   0  0  0  0  0  0  0  0  0  0  0  0 
    4.0002   -0.0686   -2.2910 C   0  0  0  0  0  0  0  0  0  0  0  0 
    3.0527    1.2332   -0.4573 C   0  0  0  0  0  0  0  0  0  0  0  0 
    3.8785   -1.2416   -1.5132 C   0  0  0  0  0  0  0  0  0  0  0  0 
    2.5581   -0.0829    0.1455 C   0  0  0  0  0  0  0  0  0  0  0  0 
    5.1326   -3.8441   -3.7201 O   0  0  0  0  0  0  0  0  0  0  0  0 
    3.4320   -1.1849   -0.2300 O   0  0  0  0  0  0  0  0  0  0  0  0 
    0.4405    0.3930   -0.0824 H   0  0  0  0  0  0  0  0  0  0  0  0 
    0.7840   -1.3459    0.0657 H   0  0  0  0  0  0  0  0  0  0  0  0 
    1.1347   -0.4902   -1.4548 H   0  0  0  0  0  0  0  0  0  0  0  0 
    1.8638    0.5636    2.1126 H   0  0  0  0  0  0  0  0  0  0  0  0 
    3.5927    0.1405    2.0489 H   0  0  0  0  0  0  0  0  0  0  0  0 
    2.3618   -1.1352    2.0121 H   0  0  0  0  0  0  0  0  0  0  0  0 
    3.8786    4.6477   -2.2131 H   0  0  0  0  0  0  0  0  0  0  0  0 
    2.3445    3.7874   -2.1094 H   0  0  0  0  0  0  0  0  0  0  0  0 
    3.0590    4.6545    0.1507 H   0  0  0  0  0  0  0  0  0  0  0  0 
    4.5323    3.6942    0.0317 H   0  0  0  0  0  0  0  0  0  0  0  0 
    5.1539    2.6009   -2.3685 H   0  0  0  0  0  0  0  0  0  0  0  0 
    3.7873    2.4097   -3.4450 H   0  0  0  0  0  0  0  0  0  0  0  0 
    1.6499    2.7012    0.2591 H   0  0  0  0  0  0  0  0  0  0  0  0 
    2.9843    2.4019    1.3478 H   0  0  0  0  0  0  0  0  0  0  0  0 
    5.2917   -1.5382   -5.1040 H   0  0  0  0  0  0  0  0  0  0  0  0 
    4.6347    0.6563   -4.2207 H   0  0  0  0  0  0  0  0  0  0  0  0 
    4.1636   -3.3687   -1.3687 H   0  0  0  0  0  0  0  0  0  0  0  0 
    5.4580   -3.7769   -4.6311 H   0  0  0  0  0  0  0  0  0  0  0  0 
  1 18  1  0  0  0  0 
  1 19  1  0  0  0  0 
  1 15  1  0  0  0  0 
  2 23  1  0  0  0  0 
  2 22  1  0  0  0  0 
  2 21  1  0  0  0  0 
  3  4  1  0  0  0  0 
  4 27  1  0  0  0  0 
  4 26  1  0  0  0  0 
  4  6  1  0  0  0  0 
  5 28  1  0  0  0  0 
  5  3  1  0  0  0  0 
  5 11  1  0  0  0  0 
  6 31  1  0  0  0  0 
  7  8  2  0  0  0  0 
  7 10  1  0  0  0  0 
  8 12  1  0  0  0  0 
  9 14  1  0  0  0  0 
  9 34  1  0  0  0  0 
 10  9  2  0  0  0  0 
 11 13  2  0  0  0  0 
 12 11  1  0  0  0  0 
 12 14  2  0  0  0  0 
 13 15  1  0  0  0  0 
 13  6  1  0  0  0  0 
 14 17  1  0  0  0  0 
 15  2  1  0  0  0  0 
 16 10  1  0  0  0  0 
 17 15  1  0  0  0  0 
 20  1  1  0  0  0  0 
 24  3  1  0  0  0  0 
 25  3  1  0  0  0  0 
 29  5  1  0  0  0  0 
 30  6  1  0  0  0  0 
 32  7  1  0  0  0  0 
 33  8  1  0  0  0  0 
 35 16  1  0  0  0  0 
M  END 
>  <HBA> 
2 
 
>  <HBD> 
1 
 
>  <TPSA> 
29.46 
 
>  <cid> 
28009 
 
>  <dipole> 
2.17 
 
>  <excitation_energy_1> 
4.195 
 
>  <excitation_energy_2> 
4.52 
 
>  <excitation_energy_3> 
4.619 
 
>  <excitation_energy_4> 
4.802 
 
>  <homo_energy> 
-5.108 
 
>  <homo_lumo_gap> 
4.759 
 
>  <logP> 
3.891 
 
>  <lumo_energy> 
-0.348 
 
>  <melting_point> 
122.05 
 
>  <molecular_refractivity> 
69.7 
 
>  <oscillator_strength_1> 
0.2082 
 
>  <oscillator_strength_2> 
0.0139 
 
>  <oscillator_strength_3> 
0.004 
 
>  <oscillator_strength_4> 
0.012 
 
>  <open_babel_can_smiles> 
Oc1ccc2c(c1)OC(C1=C2CCCC1)(C)C 
 
>  <mulliken_charges> 
35 
1   -0.445607 
2   -0.466809 
3   -0.262665 
4   -0.263772 
5   -0.340922 
6   -0.339435 
7   -0.204129 
8   -0.221335 
9   -0.23463 
10   0.359582 
11   0.103561 
12   0.081916 
13   0.040118 
14   0.325495 
15   0.24982 
16   -0.645965 
17   -0.562179 
18   0.142163 
19   0.150579 
20   0.159537 
21   0.146405 
22   0.157134 
23   0.158931 
24   0.131781 
25   0.135372 
26   0.13124 
27   0.138291 
28   0.150571 
29   0.145523 
30   0.142229 
31   0.149057 
32   0.111491 
33   0.127183 
34   0.142688 
35   0.40678 
 
>  <lowdin_charges> 
35 
1   -0.451896 
2   -0.446794 
3   -0.274007 
4   -0.27323 
5   -0.271361 
6   -0.272667 
7   -0.235483 
8   -0.150557 
9   -0.219164 
10   0.109813 
11   -0.022348 
12   -0.065696 
13   -0.050184 
14   0.11314 
15   0.138965 
16   -0.375587 
17   -0.196855 
18   0.153657 
19   0.154671 
20   0.158692 
21   0.154791 
22   0.157367 
23   0.160402 
24   0.145375 
25   0.139786 
26   0.144814 
27   0.14135 
28   0.14877 
29   0.149235 
30   0.142653 
31   0.15205 
32   0.150234 
33   0.159226 
34   0.174822 
35   0.356017 
 
$$$$ 
 
