PCCDB-ID:  35018 
public computational chemistry database (PCCDB) project, http://pccdb.org 
 
 31 31  0  0  0  0  0  0  0  0999 V2000 
    1.0850    2.3722    0.2855 C   0  0  0  0  0  0  0  0  0  0  0  0 
    7.8487    5.0578    4.5251 C   0  0  0  0  0  0  0  0  0  0  0  0 
    9.2658    0.0633   -0.2373 C   0  0  0  0  0  0  0  0  0  0  0  0 
    2.6163    2.3406    0.2760 C   0  0  0  0  0  0  0  0  0  0  0  0 
    3.1973    1.0303    0.8194 C   0  0  0  0  0  0  0  0  0  0  0  0 
    4.7288    1.0187    0.8667 C   0  0  0  0  0  0  0  0  0  0  0  0 
    6.4730    2.2086    1.9006 C   0  0  0  0  0  0  0  0  0  0  0  0 
    8.1868    3.3645    2.9291 C   0  0  0  0  0  0  0  0  0  0  0  0 
    8.6642    1.7010    1.3425 C   0  0  0  0  0  0  0  0  0  0  0  0 
    5.2140    2.0336    1.7919 N   0  0  0  0  0  0  0  0  0  0  0  0 
    6.9278    3.1953    2.8080 N   0  0  0  0  0  0  0  0  0  0  0  0 
    7.4217    1.4576    1.1541 N   0  0  0  0  0  0  0  0  0  0  0  0 
    9.1404    2.6449    2.2270 N   0  0  0  0  0  0  0  0  0  0  0  0 
    8.7578    4.2573    3.7481 O   0  0  0  0  0  0  0  0  0  0  0  0 
    9.6614    1.0722    0.7090 O   0  0  0  0  0  0  0  0  0  0  0  0 
    0.6995    3.3224   -0.1032 H   0  0  0  0  0  0  0  0  0  0  0  0 
    0.6943    2.2470    1.3032 H   0  0  0  0  0  0  0  0  0  0  0  0 
    0.6636    1.5665   -0.3297 H   0  0  0  0  0  0  0  0  0  0  0  0 
    8.4865    5.7071    5.1256 H   0  0  0  0  0  0  0  0  0  0  0  0 
    7.2289    4.4213    5.1606 H   0  0  0  0  0  0  0  0  0  0  0  0 
    7.2016    5.6440    3.8685 H   0  0  0  0  0  0  0  0  0  0  0  0 
   10.2003   -0.3306   -0.6375 H   0  0  0  0  0  0  0  0  0  0  0  0 
    8.6566    0.5032   -1.0304 H   0  0  0  0  0  0  0  0  0  0  0  0 
    8.6927   -0.7221    0.2607 H   0  0  0  0  0  0  0  0  0  0  0  0 
    3.0130    3.1680    0.8764 H   0  0  0  0  0  0  0  0  0  0  0  0 
    2.9811    2.4984   -0.7501 H   0  0  0  0  0  0  0  0  0  0  0  0 
    2.8542    0.1868    0.2018 H   0  0  0  0  0  0  0  0  0  0  0  0 
    2.8144    0.8559    1.8345 H   0  0  0  0  0  0  0  0  0  0  0  0 
    5.1341    1.1811   -0.1453 H   0  0  0  0  0  0  0  0  0  0  0  0 
    5.0823    0.0211    1.1713 H   0  0  0  0  0  0  0  0  0  0  0  0 
   10.1297    2.8133    2.3455 H   0  0  0  0  0  0  0  0  0  0  0  0 
  1 17  1  0  0  0  0 
  2 19  1  0  0  0  0 
  2 20  1  0  0  0  0 
  3 24  1  0  0  0  0 
  3 15  1  0  0  0  0 
  4  1  1  0  0  0  0 
  4  5  1  0  0  0  0 
  4 25  1  0  0  0  0 
  5  6  1  0  0  0  0 
  5 28  1  0  0  0  0 
  6 30  1  0  0  0  0 
  6 10  1  0  0  0  0 
  7 11  2  0  0  0  0 
  8 14  1  0  0  0  0 
  9 13  1  0  0  0  0 
 10  7  1  0  0  0  0 
 11  8  2  0  0  0  0 
 12  9  2  0  0  0  0 
 12  7  2  0  0  0  0 
 13 31  1  0  0  0  0 
 13  8  1  0  0  0  0 
 14  2  1  0  0  0  0 
 15  9  1  0  0  0  0 
 16  1  1  0  0  0  0 
 18  1  1  0  0  0  0 
 21  2  1  0  0  0  0 
 22  3  1  0  0  0  0 
 23  3  1  0  0  0  0 
 26  4  1  0  0  0  0 
 27  5  1  0  0  0  0 
 29  6  1  0  0  0  0 
M  RAD  1  10   2 
M  END 
>  <HBA> 
6 
 
>  <HBD> 
1 
 
>  <TPSA> 
69.16 
 
>  <cid> 
35018 
 
>  <dipole> 
5.27 
 
>  <excitation_energy_1> 
4.833 
 
>  <excitation_energy_2> 
4.988 
 
>  <excitation_energy_3> 
5.114 
 
>  <excitation_energy_4> 
5.31 
 
>  <homo_energy> 
-5.723 
 
>  <homo_lumo_gap> 
5.755 
 
>  <logP> 
1.174 
 
>  <lumo_energy> 
0.033 
 
>  <melting_point> 
94.61 
 
>  <molecular_refractivity> 
56.54 
 
>  <oscillator_strength_1> 
0.007 
 
>  <oscillator_strength_2> 
0.0007 
 
>  <oscillator_strength_3> 
0.0 
 
>  <oscillator_strength_4> 
0.0004 
 
>  <open_babel_can_smiles> 
CCCC[N][C]1=[N]=C(OC)NC(=[N]=1)OC 
 
>  <mulliken_charges> 
31 
1   -0.440356 
2   -0.213188 
3   -0.212836 
4   -0.244428 
5   -0.243951 
6   -0.1248 
7   0.563897 
8   0.76591 
9   0.769803 
10   -0.473648 
11   -0.507381 
12   -0.538213 
13   -0.701797 
14   -0.497288 
15   -0.492559 
16   0.134195 
17   0.139269 
18   0.132548 
19   0.165943 
20   0.183278 
21   0.182463 
22   0.168939 
23   0.180542 
24   0.180846 
25   0.15792 
26   0.11535 
27   0.110228 
28   0.130777 
29   0.125156 
30   0.125769 
31   0.357612 
 
>  <lowdin_charges> 
31 
1   -0.445046 
2   -0.275199 
3   -0.272277 
4   -0.274719 
5   -0.27891 
6   -0.199913 
7   0.103404 
8   0.170471 
9   0.179755 
10   -0.209815 
11   -0.211139 
12   -0.244969 
13   -0.235502 
14   -0.186295 
15   -0.182653 
16   0.145069 
17   0.144215 
18   0.142111 
19   0.162982 
20   0.168274 
21   0.167832 
22   0.163352 
23   0.166164 
24   0.166501 
25   0.153458 
26   0.131093 
27   0.132689 
28   0.140534 
29   0.131986 
30   0.136021 
31   0.310527 
 
$$$$ 
 
