PCCDB-ID:  69280 
public computational chemistry database (PCCDB) project, http://pccdb.org 
 
 16 15  0  0  0  0  0  0  0  0999 V2000 
    2.5634   -0.1962   -0.4550 C   0  0  0  0  0  0  0  0  0  0  0  0 
    1.9870   -2.6826   -0.1690 C   0  0  0  0  0  0  0  0  0  0  0  0 
    1.4958   -1.2345   -0.1146 C   0  0  0  0  0  0  0  0  0  0  0  0 
    0.0279   -0.1181    1.4988 N   0  0  0  0  0  0  0  0  0  0  0  0 
    3.7324   -0.3309    0.3370 O   0  0  0  0  0  0  0  0  0  0  0  0 
    0.9524   -3.6085    0.1011 O   0  0  0  0  0  0  0  0  0  0  0  0 
   -0.4143    0.4746    0.5377 O   0  0  0  0  0  0  0  0  0  0  0  0 
   -0.2798   -0.0422    2.6621 O   0  0  0  0  0  0  0  0  0  0  0  0 
    1.0768   -1.0601    1.2796 O   0  0  0  0  0  0  0  0  0  0  0  0 
    2.1298    0.8112   -0.3767 H   0  0  0  0  0  0  0  0  0  0  0  0 
    2.8765   -0.3401   -1.4946 H   0  0  0  0  0  0  0  0  0  0  0  0 
    2.8459   -2.8060    0.5033 H   0  0  0  0  0  0  0  0  0  0  0  0 
    2.3319   -2.8841   -1.1883 H   0  0  0  0  0  0  0  0  0  0  0  0 
    0.6177   -1.1171   -0.7535 H   0  0  0  0  0  0  0  0  0  0  0  0 
    3.4773   -0.1652    1.2588 H   0  0  0  0  0  0  0  0  0  0  0  0 
    0.6880   -3.4784    1.0255 H   0  0  0  0  0  0  0  0  0  0  0  0 
  1 10  1  0  0  0  0 
  1  3  1  0  0  0  0 
  1  5  1  0  0  0  0 
  2  3  1  0  0  0  0 
  2  6  1  0  0  0  0 
  2 12  1  0  0  0  0 
  3  9  1  0  0  0  0 
  4  8  2  0  0  0  0 
  5 15  1  0  0  0  0 
  6 16  1  0  0  0  0 
  7  4  2  0  0  0  0 
  9  4  1  0  0  0  0 
 11  1  1  0  0  0  0 
 13  2  1  0  0  0  0 
 14  3  1  0  0  0  0 
M  END 
>  <HBA> 
2 
 
>  <HBD> 
2 
 
>  <TPSA> 
95.51 
 
>  <cid> 
69280 
 
>  <dipole> 
0.98 
 
>  <excitation_energy_1> 
4.504 
 
>  <excitation_energy_2> 
4.664 
 
>  <excitation_energy_3> 
5.329 
 
>  <excitation_energy_4> 
5.634 
 
>  <homo_energy> 
-7.48 
 
>  <homo_lumo_gap> 
5.325 
 
>  <logP> 
-0.929 
 
>  <lumo_energy> 
-2.155 
 
>  <melting_point> 
36.82 
 
>  <molecular_refractivity> 
28.05 
 
>  <oscillator_strength_1> 
0.0033 
 
>  <oscillator_strength_2> 
0.0004 
 
>  <oscillator_strength_3> 
0.0042 
 
>  <oscillator_strength_4> 
0.0003 
 
>  <open_babel_can_smiles> 
OCC(ON(=O)=O)CO 
 
>  <mulliken_charges> 
16 
1   -0.057532 
2   -0.03839 
3   0.065632 
4   0.748864 
5   -0.605694 
6   -0.612011 
7   -0.357349 
8   -0.345731 
9   -0.418691 
10   0.152353 
11   0.163346 
12   0.155122 
13   0.162721 
14   0.184978 
15   0.400631 
16   0.40175 
 
>  <lowdin_charges> 
16 
1   -0.146634 
2   -0.139901 
3   -0.046408 
4   0.373774 
5   -0.456747 
6   -0.455375 
7   -0.209963 
8   -0.185363 
9   -0.209267 
10   0.144492 
11   0.159499 
12   0.147414 
13   0.160687 
14   0.17085 
15   0.34663 
16   0.346312 
 
$$$$ 
 
