PCCDB-ID:  22471 
public computational chemistry database (PCCDB) project, http://pccdb.org 
 
 24 23  0  0  0  0  0  0  0  0999 V2000 
    0.4819   -1.6811   -0.4552 C   0  0  0  0  0  0  0  0  0  0  0  0 
    2.7500   -1.9905    0.6718 C   0  0  0  0  0  0  0  0  0  0  0  0 
    2.6018   -1.5794   -1.8498 C   0  0  0  0  0  0  0  0  0  0  0  0 
   -0.0880   -1.4766    0.9401 C   0  0  0  0  0  0  0  0  0  0  0  0 
    2.7759   -3.4998    0.4636 C   0  0  0  0  0  0  0  0  0  0  0  0 
    4.0544   -1.1149   -1.8355 C   0  0  0  0  0  0  0  0  0  0  0  0 
    1.9711   -1.2671   -0.4714 C   0  0  0  0  0  0  0  0  0  0  0  0 
   -0.2487   -2.3943    1.7269 O   0  0  0  0  0  0  0  0  0  0  0  0 
   -0.3397   -0.2132    1.2995 O   0  0  0  0  0  0  0  0  0  0  0  0 
    3.6199   -4.0380   -0.2396 O   0  0  0  0  0  0  0  0  0  0  0  0 
    1.8061   -4.2258    1.0189 O   0  0  0  0  0  0  0  0  0  0  0  0 
    4.3217    0.0695   -1.9383 O   0  0  0  0  0  0  0  0  0  0  0  0 
    4.9990   -2.0313   -1.6149 O   0  0  0  0  0  0  0  0  0  0  0  0 
    1.9805    0.1383   -0.2269 O   0  0  0  0  0  0  0  0  0  0  0  0 
   -0.0559   -1.0734   -1.1901 H   0  0  0  0  0  0  0  0  0  0  0  0 
    0.3652   -2.7339   -0.7195 H   0  0  0  0  0  0  0  0  0  0  0  0 
    3.7829   -1.6352    0.6804 H   0  0  0  0  0  0  0  0  0  0  0  0 
    2.3069   -1.7250    1.6345 H   0  0  0  0  0  0  0  0  0  0  0  0 
    2.5108   -2.6428   -2.0811 H   0  0  0  0  0  0  0  0  0  0  0  0 
    2.0725   -1.0045   -2.6146 H   0  0  0  0  0  0  0  0  0  0  0  0 
    0.1019    0.3870    0.6644 H   0  0  0  0  0  0  0  0  0  0  0  0 
    1.1092   -3.6641    1.4401 H   0  0  0  0  0  0  0  0  0  0  0  0 
    4.6000   -2.8822   -1.3010 H   0  0  0  0  0  0  0  0  0  0  0  0 
    2.7567    0.5271   -0.6819 H   0  0  0  0  0  0  0  0  0  0  0  0 
  1  4  1  0  0  0  0 
  2 17  1  0  0  0  0 
  2 18  1  0  0  0  0 
  3  6  1  0  0  0  0 
  3  7  1  0  0  0  0 
  4  9  1  0  0  0  0 
  4  8  2  0  0  0  0 
  5  2  1  0  0  0  0 
  5 11  1  0  0  0  0 
  6 13  1  0  0  0  0 
  7  1  1  0  0  0  0 
  7 14  1  0  0  0  0 
  7  2  1  0  0  0  0 
 10  5  2  0  0  0  0 
 11 22  1  0  0  0  0 
 12  6  2  0  0  0  0 
 13 23  1  0  0  0  0 
 15  1  1  0  0  0  0 
 16  1  1  0  0  0  0 
 19  3  1  0  0  0  0 
 20  3  1  0  0  0  0 
 21  9  1  0  0  0  0 
 24 14  1  0  0  0  0 
M  END 
>  <HBA> 
7 
 
>  <HBD> 
4 
 
>  <TPSA> 
132.13 
 
>  <cid> 
22471 
 
>  <dipole> 
3.06 
 
>  <excitation_energy_1> 
5.435 
 
>  <excitation_energy_2> 
5.6 
 
>  <excitation_energy_3> 
5.637 
 
>  <excitation_energy_4> 
6.253 
 
>  <homo_energy> 
-7.875 
 
>  <homo_lumo_gap> 
6.808 
 
>  <logP> 
-0.858 
 
>  <lumo_energy> 
-1.067 
 
>  <melting_point> 
233.89 
 
>  <molecular_refractivity> 
42.28 
 
>  <oscillator_strength_1> 
0.0072 
 
>  <oscillator_strength_2> 
0.0027 
 
>  <oscillator_strength_3> 
0.0023 
 
>  <oscillator_strength_4> 
0.0007 
 
>  <open_babel_can_smiles> 
OC(=O)CC(CC(=O)O)(CC(=O)O)O 
 
>  <mulliken_charges> 
24 
1   -0.404908 
2   -0.421897 
3   -0.39554 
4   0.616785 
5   0.615085 
6   0.588199 
7   0.295266 
8   -0.479689 
9   -0.551073 
10   -0.486148 
11   -0.573221 
12   -0.468995 
13   -0.578618 
14   -0.683378 
15   0.183463 
16   0.191767 
17   0.202955 
18   0.193529 
19   0.180549 
20   0.189356 
21   0.444179 
22   0.455475 
23   0.453706 
24   0.433153 
 
>  <lowdin_charges> 
24 
1   -0.329786 
2   -0.339836 
3   -0.332538 
4   0.21044 
5   0.205415 
6   0.189662 
7   0.132 
8   -0.270624 
9   -0.326495 
10   -0.279444 
11   -0.329742 
12   -0.273179 
13   -0.337295 
14   -0.466851 
15   0.177226 
16   0.179509 
17   0.184717 
18   0.178387 
19   0.172619 
20   0.182045 
21   0.373651 
22   0.369396 
23   0.366829 
24   0.363895 
 
$$$$ 
 
