PCCDB-ID:  24994 
public computational chemistry database (PCCDB) project, http://pccdb.org 
 
 26 25  0  0  1  0  0  0  0  0999 V2000 
    5.2158    0.1816   -1.4756 C   0  0  0  0  0  0  0  0  0  0  0  0 
    6.6852    0.0979    1.2467 C   0  0  0  0  0  0  0  0  0  0  0  0 
    2.0061    0.6306    3.1060 C   0  0  0  0  0  0  0  0  0  0  0  0 
    0.5646   -1.5153    0.6274 C   0  0  0  0  0  0  0  0  0  0  0  0 
    3.3573   -0.7395   -0.0179 C   0  0  0  0  0  0  0  0  0  0  0  0 
    4.6733    0.0416   -0.0502 C   0  0  1  0  0  0  0  0  0  0  0  0 
    2.7408   -0.8190    1.3785 C   0  0  0  0  0  0  0  0  0  0  0  0 
    5.5885   -0.6662    0.7919 O   0  0  0  0  0  0  0  0  0  0  0  0 
    2.3455    0.4901    1.7341 O   0  0  0  0  0  0  0  0  0  0  0  0 
    1.6763   -1.7465    1.4836 O   0  0  0  0  0  0  0  0  0  0  0  0 
    4.5104    0.7362   -2.1049 H   0  0  0  0  0  0  0  0  0  0  0  0 
    5.3768   -0.8066   -1.9212 H   0  0  0  0  0  0  0  0  0  0  0  0 
    6.1684    0.7215   -1.4918 H   0  0  0  0  0  0  0  0  0  0  0  0 
    7.2386   -0.5298    1.9509 H   0  0  0  0  0  0  0  0  0  0  0  0 
    6.3558    1.0115    1.7670 H   0  0  0  0  0  0  0  0  0  0  0  0 
    7.3662    0.3904    0.4333 H   0  0  0  0  0  0  0  0  0  0  0  0 
    1.1561   -0.0057    3.3801 H   0  0  0  0  0  0  0  0  0  0  0  0 
    1.7404    1.6796    3.2600 H   0  0  0  0  0  0  0  0  0  0  0  0 
    2.8584    0.3760    3.7540 H   0  0  0  0  0  0  0  0  0  0  0  0 
   -0.2423   -2.1564    0.9920 H   0  0  0  0  0  0  0  0  0  0  0  0 
    0.7827   -1.7874   -0.4148 H   0  0  0  0  0  0  0  0  0  0  0  0 
    0.2377   -0.4690    0.6622 H   0  0  0  0  0  0  0  0  0  0  0  0 
    3.5368   -1.7616   -0.3722 H   0  0  0  0  0  0  0  0  0  0  0  0 
    2.6489   -0.2621   -0.7042 H   0  0  0  0  0  0  0  0  0  0  0  0 
    4.4962    1.0413    0.3760 H   0  0  0  0  0  0  0  0  0  0  0  0 
    3.4833   -1.1949    2.0926 H   0  0  0  0  0  0  0  0  0  0  0  0 
  1  6  1  0  0  0  0 
  2 15  1  0  0  0  0 
  2 14  1  0  0  0  0 
  3 18  1  0  0  0  0 
  3 17  1  0  0  0  0 
  3 19  1  0  0  0  0 
  4 22  1  0  0  0  0 
  4 20  1  0  0  0  0 
  4 10  1  0  0  0  0 
  5  7  1  0  0  0  0 
  6  5  1  0  0  0  0 
  6 25  1  1  0  0  0 
  6  8  1  0  0  0  0 
  7 10  1  0  0  0  0 
  7  9  1  0  0  0  0 
  7 26  1  0  0  0  0 
  8  2  1  0  0  0  0 
  9  3  1  0  0  0  0 
 11  1  1  0  0  0  0 
 12  1  1  0  0  0  0 
 13  1  1  0  0  0  0 
 16  2  1  0  0  0  0 
 21  4  1  0  0  0  0 
 23  5  1  0  0  0  0 
 24  5  1  0  0  0  0 
M  END 
>  <HBA> 
3 
 
>  <HBD> 
0 
 
>  <TPSA> 
27.69 
 
>  <cid> 
24994 
 
>  <dipole> 
1.38 
 
>  <excitation_energy_1> 
6.41 
 
>  <excitation_energy_2> 
6.706 
 
>  <excitation_energy_3> 
6.754 
 
>  <excitation_energy_4> 
6.922 
 
>  <homo_energy> 
-6.708 
 
>  <homo_lumo_gap> 
9.083 
 
>  <logP> 
1.03 
 
>  <lumo_energy> 
2.376 
 
>  <melting_point> 
-54.08 
 
>  <molecular_refractivity> 
39.02 
 
>  <oscillator_strength_1> 
0.0061 
 
>  <oscillator_strength_2> 
0.0008 
 
>  <oscillator_strength_3> 
0.0138 
 
>  <oscillator_strength_4> 
0.0089 
 
>  <open_babel_can_smiles> 
CO[C@H](CC(OC)OC)C 
 
>  <mulliken_charges> 
26 
1   -0.459246 
2   -0.195321 
3   -0.202769 
4   -0.213835 
5   -0.311037 
6   0.152764 
7   0.356808 
8   -0.476884 
9   -0.476433 
10   -0.479519 
11   0.143278 
12   0.152045 
13   0.145809 
14   0.156397 
15   0.130789 
16   0.131324 
17   0.15161 
18   0.153226 
19   0.134435 
20   0.154276 
21   0.135605 
22   0.15001 
23   0.153041 
24   0.143115 
25   0.129836 
26   0.140674 
 
>  <lowdin_charges> 
26 
1   -0.459042 
2   -0.283669 
3   -0.282805 
4   -0.286182 
5   -0.300293 
6   0.00664 
7   0.092101 
8   -0.275502 
9   -0.272153 
10   -0.271325 
11   0.154876 
12   0.153713 
13   0.15146 
14   0.155789 
15   0.132306 
16   0.131978 
17   0.144157 
18   0.15166 
19   0.136667 
20   0.155019 
21   0.133072 
22   0.141676 
23   0.158043 
24   0.156161 
25   0.132938 
26   0.142715 
 
$$$$ 
 
