PCCDB-ID:  10281 
public computational chemistry database (PCCDB) project, http://pccdb.org 
 
 24 24  0  0  0  0  0  0  0  0999 V2000 
    1.5436    0.2422   -1.3229 C   0  0  0  0  0  0  0  0  0  0  0  0 
    1.2800    0.1516    1.2091 C   0  0  0  0  0  0  0  0  0  0  0  0 
    4.6523   -5.5129    0.0866 C   0  0  0  0  0  0  0  0  0  0  0  0 
    2.6404   -4.0049   -0.0831 C   0  0  0  0  0  0  0  0  0  0  0  0 
    4.1875   -1.6368    0.1776 C   0  0  0  0  0  0  0  0  0  0  0  0 
    2.2370   -0.0690    0.0194 C   0  0  0  0  0  0  0  0  0  0  0  0 
    3.9677   -4.1794    0.0610 C   0  0  0  0  0  0  0  0  0  0  0  0 
    2.8590   -1.4527    0.0359 C   0  0  0  0  0  0  0  0  0  0  0  0 
    4.8343   -2.9668    0.2017 C   0  0  0  0  0  0  0  0  0  0  0  0 
    1.9927   -2.6724   -0.1051 C   0  0  0  0  0  0  0  0  0  0  0  0 
    6.0494   -3.0748    0.3331 O   0  0  0  0  0  0  0  0  0  0  0  0 
    0.7744   -2.5904   -0.2365 O   0  0  0  0  0  0  0  0  0  0  0  0 
    1.1959    1.2816   -1.3267 H   0  0  0  0  0  0  0  0  0  0  0  0 
    0.6813   -0.4109   -1.4786 H   0  0  0  0  0  0  0  0  0  0  0  0 
    2.2333    0.1150   -2.1649 H   0  0  0  0  0  0  0  0  0  0  0  0 
    0.9347    1.1918    1.2175 H   0  0  0  0  0  0  0  0  0  0  0  0 
    1.7812   -0.0443    2.1638 H   0  0  0  0  0  0  0  0  0  0  0  0 
    0.4068   -0.5011    1.1351 H   0  0  0  0  0  0  0  0  0  0  0  0 
    3.9347   -6.3305   -0.0202 H   0  0  0  0  0  0  0  0  0  0  0  0 
    5.2067   -5.6430    1.0231 H   0  0  0  0  0  0  0  0  0  0  0  0 
    5.3938   -5.5802   -0.7179 H   0  0  0  0  0  0  0  0  0  0  0  0 
    1.9563   -4.8428   -0.1932 H   0  0  0  0  0  0  0  0  0  0  0  0 
    4.8711   -0.7978    0.2848 H   0  0  0  0  0  0  0  0  0  0  0  0 
    3.0711    0.6373    0.1314 H   0  0  0  0  0  0  0  0  0  0  0  0 
  1  6  1  0  0  0  0 
  2 16  1  0  0  0  0 
  2 17  1  0  0  0  0 
  3 20  1  0  0  0  0 
  4  7  2  0  0  0  0 
  5  9  1  0  0  0  0 
  5 23  1  0  0  0  0 
  6  8  1  0  0  0  0 
  6 24  1  0  0  0  0 
  6  2  1  0  0  0  0 
  7  3  1  0  0  0  0 
  7  9  1  0  0  0  0 
  8  5  2  0  0  0  0 
  9 11  2  0  0  0  0 
 10  4  1  0  0  0  0 
 10  8  1  0  0  0  0 
 12 10  2  0  0  0  0 
 13  1  1  0  0  0  0 
 14  1  1  0  0  0  0 
 15  1  1  0  0  0  0 
 18  2  1  0  0  0  0 
 19  3  1  0  0  0  0 
 21  3  1  0  0  0  0 
 22  4  1  0  0  0  0 
M  END 
>  <HBA> 
2 
 
>  <HBD> 
0 
 
>  <TPSA> 
34.14 
 
>  <cid> 
10281 
 
>  <dipole> 
0.14 
 
>  <excitation_energy_1> 
2.507 
 
>  <excitation_energy_2> 
2.75 
 
>  <excitation_energy_3> 
3.389 
 
>  <excitation_energy_4> 
4.639 
 
>  <homo_energy> 
-7.061 
 
>  <homo_lumo_gap> 
3.812 
 
>  <logP> 
1.667 
 
>  <lumo_energy> 
-3.249 
 
>  <melting_point> 
62.56 
 
>  <molecular_refractivity> 
47.52 
 
>  <oscillator_strength_1> 
0.0 
 
>  <oscillator_strength_2> 
0.0 
 
>  <oscillator_strength_3> 
0.0004 
 
>  <oscillator_strength_4> 
0.2862 
 
>  <open_babel_can_smiles> 
CC(C1=CC(=O)C(=CC1=O)C)C 
 
>  <mulliken_charges> 
24 
1   -0.455778 
2   -0.455251 
3   -0.512687 
4   -0.237757 
5   -0.265552 
6   -0.147787 
7   0.128126 
8   0.145184 
9   0.411169 
10   0.406865 
11   -0.463991 
12   -0.468021 
13   0.145821 
14   0.180064 
15   0.143975 
16   0.146079 
17   0.144075 
18   0.179466 
19   0.160028 
20   0.183157 
21   0.183108 
22   0.155613 
23   0.157101 
24   0.136994 
 
>  <lowdin_charges> 
24 
1   -0.446362 
2   -0.445277 
3   -0.436366 
4   -0.177197 
5   -0.177733 
6   -0.112934 
7   0.000897 
8   -0.000135 
9   0.140981 
10   0.147674 
11   -0.219653 
12   -0.220766 
13   0.151224 
14   0.166082 
15   0.150419 
16   0.15135 
17   0.149841 
18   0.16571 
19   0.161945 
20   0.176327 
21   0.176787 
22   0.175516 
23   0.174933 
24   0.146738 
 
$$$$ 
 
