PCCDB-ID:  42292 
public computational chemistry database (PCCDB) project, http://pccdb.org 
 
 34 35  0  0  0  0  0  0  0  0999 V2000 
    2.4994    0.7577    1.5365 C   0  0  0  0  0  0  0  0  0  0  0  0 
    6.8093   -9.7546    1.1577 C   0  0  0  0  0  0  0  0  0  0  0  0 
    2.7334    0.2558    0.0998 C   0  0  0  0  0  0  0  0  0  0  0  0 
    5.8021   -9.4745    0.0273 C   0  0  0  0  0  0  0  0  0  0  0  0 
    2.2600   -2.2373    0.0114 C   0  0  0  0  0  0  0  0  0  0  0  0 
    4.5475   -1.5216    0.0713 C   0  0  0  0  0  0  0  0  0  0  0  0 
    6.0342   -7.0523   -0.7002 C   0  0  0  0  0  0  0  0  0  0  0  0 
    4.1886   -7.6375    0.7139 C   0  0  0  0  0  0  0  0  0  0  0  0 
    2.6734   -3.5674    0.0031 C   0  0  0  0  0  0  0  0  0  0  0  0 
    4.9661   -2.8502    0.0644 C   0  0  0  0  0  0  0  0  0  0  0  0 
    5.6219   -5.7218   -0.6923 C   0  0  0  0  0  0  0  0  0  0  0  0 
    3.7729   -6.3081    0.7260 C   0  0  0  0  0  0  0  0  0  0  0  0 
    3.1872   -1.1875    0.0477 C   0  0  0  0  0  0  0  0  0  0  0  0 
    5.3281   -8.0369    0.0035 C   0  0  0  0  0  0  0  0  0  0  0  0 
    4.0372   -3.9035    0.0311 C   0  0  0  0  0  0  0  0  0  0  0  0 
    4.4808   -5.3200    0.0220 C   0  0  0  0  0  0  0  0  0  0  0  0 
    2.1668    1.8023    1.5377 H   0  0  0  0  0  0  0  0  0  0  0  0 
    3.4187    0.6921    2.1292 H   0  0  0  0  0  0  0  0  0  0  0  0 
    1.7355    0.1564    2.0422 H   0  0  0  0  0  0  0  0  0  0  0  0 
    7.1302  -10.8027    1.1459 H   0  0  0  0  0  0  0  0  0  0  0  0 
    6.3668   -9.5448    2.1380 H   0  0  0  0  0  0  0  0  0  0  0  0 
    7.7000   -9.1247    1.0545 H   0  0  0  0  0  0  0  0  0  0  0  0 
    3.4820    0.8938   -0.3868 H   0  0  0  0  0  0  0  0  0  0  0  0 
    1.8058    0.3704   -0.4756 H   0  0  0  0  0  0  0  0  0  0  0  0 
    4.9394  -10.1432    0.1408 H   0  0  0  0  0  0  0  0  0  0  0  0 
    6.2651   -9.7245   -0.9360 H   0  0  0  0  0  0  0  0  0  0  0  0 
    1.1964   -2.0096   -0.0238 H   0  0  0  0  0  0  0  0  0  0  0  0 
    5.2918   -0.7282    0.1020 H   0  0  0  0  0  0  0  0  0  0  0  0 
    6.9153   -7.3335   -1.2737 H   0  0  0  0  0  0  0  0  0  0  0  0 
    3.6205   -8.3792    1.2720 H   0  0  0  0  0  0  0  0  0  0  0  0 
    1.9299   -4.3576   -0.0571 H   0  0  0  0  0  0  0  0  0  0  0  0 
    6.0282   -3.0758    0.1073 H   0  0  0  0  0  0  0  0  0  0  0  0 
    6.1736   -4.9884   -1.2740 H   0  0  0  0  0  0  0  0  0  0  0  0 
    2.8977   -6.0272    1.3057 H   0  0  0  0  0  0  0  0  0  0  0  0 
  1 17  1  0  0  0  0 
  1 19  1  0  0  0  0 
  1 18  1  0  0  0  0 
  2 21  1  0  0  0  0 
  3  1  1  0  0  0  0 
  4 25  1  0  0  0  0 
  4  2  1  0  0  0  0 
  5 13  1  0  0  0  0 
  6 28  1  0  0  0  0 
  7 11  2  0  0  0  0 
  7 14  1  0  0  0  0 
  8 12  1  0  0  0  0 
  8 30  1  0  0  0  0 
  9  5  2  0  0  0  0 
  9 15  1  0  0  0  0 
 10  6  1  0  0  0  0 
 10 32  1  0  0  0  0 
 11 16  1  0  0  0  0 
 12 34  1  0  0  0  0 
 13  6  2  0  0  0  0 
 13  3  1  0  0  0  0 
 14  4  1  0  0  0  0 
 14  8  2  0  0  0  0 
 15 10  2  0  0  0  0 
 16 15  1  0  0  0  0 
 16 12  2  0  0  0  0 
 20  2  1  0  0  0  0 
 22  2  1  0  0  0  0 
 23  3  1  0  0  0  0 
 24  3  1  0  0  0  0 
 26  4  1  0  0  0  0 
 27  5  1  0  0  0  0 
 29  7  1  0  0  0  0 
 31  9  1  0  0  0  0 
 33 11  1  0  0  0  0 
M  END 
>  <HBA> 
0 
 
>  <HBD> 
0 
 
>  <TPSA> 
0.0 
 
>  <cid> 
42292 
 
>  <dipole> 
0.09 
 
>  <excitation_energy_1> 
4.666 
 
>  <excitation_energy_2> 
4.777 
 
>  <excitation_energy_3> 
4.876 
 
>  <excitation_energy_4> 
5.403 
 
>  <homo_energy> 
-5.758 
 
>  <homo_lumo_gap> 
5.187 
 
>  <logP> 
4.478 
 
>  <lumo_energy> 
-0.571 
 
>  <melting_point> 
48.94 
 
>  <molecular_refractivity> 
71.42 
 
>  <oscillator_strength_1> 
0.6786 
 
>  <oscillator_strength_2> 
0.0003 
 
>  <oscillator_strength_3> 
0.001 
 
>  <oscillator_strength_4> 
0.0018 
 
>  <open_babel_can_smiles> 
CCc1ccc(cc1)c1ccc(cc1)CC 
 
>  <mulliken_charges> 
34 
1   -0.433126 
2   -0.433061 
3   -0.340541 
4   -0.340869 
5   -0.188114 
6   -0.188967 
7   -0.188224 
8   -0.188992 
9   -0.173873 
10   -0.173708 
11   -0.17383 
12   -0.173764 
13   0.180937 
14   0.181229 
15   0.087983 
16   0.088099 
17   0.14295 
18   0.14958 
19   0.149191 
20   0.142979 
21   0.149607 
22   0.149132 
23   0.142271 
24   0.142835 
25   0.142343 
26   0.142903 
27   0.121458 
28   0.12151 
29   0.121445 
30   0.12148 
31   0.129958 
32   0.129655 
33   0.129889 
34   0.129635 
 
>  <lowdin_charges> 
34 
1   -0.440536 
2   -0.438996 
3   -0.27236 
4   -0.271298 
5   -0.164098 
6   -0.167758 
7   -0.165754 
8   -0.168019 
9   -0.162297 
10   -0.158817 
11   -0.16253 
12   -0.160427 
13   -0.001033 
14   -0.001502 
15   -0.005119 
16   -0.005544 
17   0.147818 
18   0.150929 
19   0.151725 
20   0.147821 
21   0.150371 
22   0.150741 
23   0.149732 
24   0.148879 
25   0.148931 
26   0.148648 
27   0.152269 
28   0.154861 
29   0.154132 
30   0.155304 
31   0.159208 
32   0.156602 
33   0.159634 
34   0.158486 
 
$$$$ 
 
