PCCDB-ID:  70011 
public computational chemistry database (PCCDB) project, http://pccdb.org 
 
 18 19  0  0  0  0  0  0  0  0999 V2000 
   -1.4639   -0.0248    0.0661 C   0  0  0  0  0  0  0  0  0  0  0  0 
   -0.7700    1.1786    0.2024 C   0  0  0  0  0  0  0  0  0  0  0  0 
   -0.7568   -1.2168   -0.1081 C   0  0  0  0  0  0  0  0  0  0  0  0 
    0.6229    1.1933    0.1639 C   0  0  0  0  0  0  0  0  0  0  0  0 
    0.6351   -1.2074   -0.1456 C   0  0  0  0  0  0  0  0  0  0  0  0 
    3.5807   -0.8120   -0.8412 C   0  0  0  0  0  0  0  0  0  0  0  0 
    1.3436   -0.0000   -0.0139 C   0  0  0  0  0  0  0  0  0  0  0  0 
    2.8181   -0.0028   -0.0637 C   0  0  0  0  0  0  0  0  0  0  0  0 
    5.0302   -0.7355   -0.7905 C   0  0  0  0  0  0  0  0  0  0  0  0 
    5.8534   -1.3709   -1.4043 O   0  0  0  0  0  0  0  0  0  0  0  0 
    3.6479    1.1271    1.0083 S   0  0  0  0  0  0  0  0  0  0  0  0 
    5.5746    0.5837    0.4064 S   0  0  0  0  0  0  0  0  0  0  0  0 
   -2.5497   -0.0347    0.0971 H   0  0  0  0  0  0  0  0  0  0  0  0 
   -1.3128    2.1105    0.3321 H   0  0  0  0  0  0  0  0  0  0  0  0 
   -1.2898   -2.1582   -0.2063 H   0  0  0  0  0  0  0  0  0  0  0  0 
    1.1545    2.1372    0.2445 H   0  0  0  0  0  0  0  0  0  0  0  0 
    1.1818   -2.1391   -0.2534 H   0  0  0  0  0  0  0  0  0  0  0  0 
    3.1480   -1.5134   -1.5460 H   0  0  0  0  0  0  0  0  0  0  0  0 
  1 13  1  0  0  0  0 
  1  2  2  0  0  0  0 
  2 14  1  0  0  0  0 
  3  1  1  0  0  0  0 
  4  2  1  0  0  0  0 
  4 16  1  0  0  0  0 
  5  3  2  0  0  0  0 
  5  7  1  0  0  0  0 
  6  9  1  0  0  0  0 
  6  8  2  0  0  0  0 
  7  4  2  0  0  0  0 
  8  7  1  0  0  0  0 
  8 11  1  0  0  0  0 
  9 12  1  0  0  0  0 
 10  9  2  0  0  0  0 
 12 11  1  0  0  0  0 
 15  3  1  0  0  0  0 
 17  5  1  0  0  0  0 
 18  6  1  0  0  0  0 
M  END 
>  <HBA> 
3 
 
>  <HBD> 
0 
 
>  <TPSA> 
73.55 
 
>  <cid> 
70011 
 
>  <dipole> 
5.1 
 
>  <excitation_energy_1> 
3.607 
 
>  <excitation_energy_2> 
3.791 
 
>  <excitation_energy_3> 
4.099 
 
>  <excitation_energy_4> 
4.451 
 
>  <homo_energy> 
-6.387 
 
>  <homo_lumo_gap> 
4.318 
 
>  <logP> 
2.837 
 
>  <lumo_energy> 
-2.068 
 
>  <melting_point> 
74.49 
 
>  <molecular_refractivity> 
53.9 
 
>  <oscillator_strength_1> 
0.0009 
 
>  <oscillator_strength_2> 
0.0477 
 
>  <oscillator_strength_3> 
0.0158 
 
>  <oscillator_strength_4> 
0.2901 
 
>  <open_babel_can_smiles> 
O=c1ssc(c1)c1ccccc1 
 
>  <mulliken_charges> 
18 
1   -0.119504 
2   -0.131657 
3   -0.132406 
4   -0.182865 
5   -0.160256 
6   -0.126008 
7   0.138986 
8   -0.195946 
9   0.240896 
10   -0.441743 
11   0.128164 
12   0.060769 
13   0.143669 
14   0.145017 
15   0.14482 
16   0.161033 
17   0.148685 
18   0.178347 
 
>  <lowdin_charges> 
18 
1   -0.139282 
2   -0.148387 
3   -0.148427 
4   -0.152516 
5   -0.146514 
6   -0.232437 
7   -0.008784 
8   -0.092669 
9   0.045015 
10   -0.228857 
11   0.154944 
12   0.073827 
13   0.16272 
14   0.165771 
15   0.165638 
16   0.172304 
17   0.168016 
18   0.189637 
 
$$$$ 
 
