PCCDB-ID:  17099 
public computational chemistry database (PCCDB) project, http://pccdb.org 
 
 24 24  0  0  0  0  0  0  0  0999 V2000 
    3.1809    0.7456   -1.0746 C   0  0  0  0  0  0  0  0  0  0  0  0 
    0.9332    0.2194   -0.0216 C   0  0  0  0  0  0  0  0  0  0  0  0 
    4.2017   -0.8128    2.8499 C   0  0  0  0  0  0  0  0  0  0  0  0 
    4.3698    0.1678    3.8297 C   0  0  0  0  0  0  0  0  0  0  0  0 
    3.5056   -0.5163    1.6810 C   0  0  0  0  0  0  0  0  0  0  0  0 
    3.8199    1.4280    3.6295 C   0  0  0  0  0  0  0  0  0  0  0  0 
    2.2437    1.0210    0.1177 C   0  0  0  0  0  0  0  0  0  0  0  0 
    2.9350    0.7465    1.4554 C   0  0  0  0  0  0  0  0  0  0  0  0 
    3.0796    1.7178    2.4714 C   0  0  0  0  0  0  0  0  0  0  0  0 
    2.5057    3.1088    2.4186 C   0  0  0  0  0  0  0  0  0  0  0  0 
    3.1094    4.0941    2.7673 O   0  0  0  0  0  0  0  0  0  0  0  0 
    1.2111    3.2248    2.0022 O   0  0  0  0  0  0  0  0  0  0  0  0 
    2.6905    1.0310   -2.0123 H   0  0  0  0  0  0  0  0  0  0  0  0 
    3.4472   -0.3148   -1.1490 H   0  0  0  0  0  0  0  0  0  0  0  0 
    4.1089    1.3198   -0.9865 H   0  0  0  0  0  0  0  0  0  0  0  0 
    0.4362    0.4539   -0.9697 H   0  0  0  0  0  0  0  0  0  0  0  0 
    0.2255    0.4378    0.7894 H   0  0  0  0  0  0  0  0  0  0  0  0 
    1.1234   -0.8597    0.0013 H   0  0  0  0  0  0  0  0  0  0  0  0 
    4.6232   -1.8046    2.9896 H   0  0  0  0  0  0  0  0  0  0  0  0 
    4.9269   -0.0474    4.7368 H   0  0  0  0  0  0  0  0  0  0  0  0 
    3.4142   -1.2817    0.9152 H   0  0  0  0  0  0  0  0  0  0  0  0 
    3.9458    2.2126    4.3687 H   0  0  0  0  0  0  0  0  0  0  0  0 
    1.9888    2.0837    0.0694 H   0  0  0  0  0  0  0  0  0  0  0  0 
    0.8298    2.3403    1.8770 H   0  0  0  0  0  0  0  0  0  0  0  0 
  1 15  1  0  0  0  0 
  1  7  1  0  0  0  0 
  2 18  1  0  0  0  0 
  2  7  1  0  0  0  0 
  2 17  1  0  0  0  0 
  3 19  1  0  0  0  0 
  3  4  2  0  0  0  0 
  4 20  1  0  0  0  0 
  5  3  1  0  0  0  0 
  6  4  1  0  0  0  0 
  6 22  1  0  0  0  0 
  7  8  1  0  0  0  0 
  8  5  2  0  0  0  0 
  8  9  1  0  0  0  0 
  9  6  2  0  0  0  0 
 10  9  1  0  0  0  0 
 10 11  2  0  0  0  0 
 12 10  1  0  0  0  0 
 13  1  1  0  0  0  0 
 14  1  1  0  0  0  0 
 16  2  1  0  0  0  0 
 21  5  1  0  0  0  0 
 23  7  1  0  0  0  0 
 24 12  1  0  0  0  0 
M  END 
>  <HBA> 
2 
 
>  <HBD> 
1 
 
>  <TPSA> 
37.3 
 
>  <cid> 
17099 
 
>  <dipole> 
4.71 
 
>  <excitation_energy_1> 
4.904 
 
>  <excitation_energy_2> 
5.0 
 
>  <excitation_energy_3> 
5.616 
 
>  <excitation_energy_4> 
5.948 
 
>  <homo_energy> 
-6.972 
 
>  <homo_lumo_gap> 
5.921 
 
>  <logP> 
2.508 
 
>  <lumo_energy> 
-1.05 
 
>  <melting_point> 
98.15 
 
>  <molecular_refractivity> 
47.98 
 
>  <oscillator_strength_1> 
0.0214 
 
>  <oscillator_strength_2> 
0.0288 
 
>  <oscillator_strength_3> 
0.0638 
 
>  <oscillator_strength_4> 
0.0941 
 
>  <open_babel_can_smiles> 
OC(=O)c1ccccc1C(C)C 
 
>  <mulliken_charges> 
24 
1   -0.442151 
2   -0.445326 
3   -0.117425 
4   -0.135122 
5   -0.191848 
6   -0.148735 
7   -0.195408 
8   0.147834 
9   -0.032977 
10   0.520813 
11   -0.436034 
12   -0.569742 
13   0.149305 
14   0.145414 
15   0.16093 
16   0.156368 
17   0.134299 
18   0.153826 
19   0.138232 
20   0.140405 
21   0.133564 
22   0.163092 
23   0.153146 
24   0.417537 
 
>  <lowdin_charges> 
24 
1   -0.438148 
2   -0.441395 
3   -0.140998 
4   -0.156068 
5   -0.163397 
6   -0.133921 
7   -0.13481 
8   -0.002242 
9   -0.069009 
10   0.196242 
11   -0.236006 
12   -0.357614 
13   0.153366 
14   0.146525 
15   0.158831 
16   0.156122 
17   0.142035 
18   0.151531 
19   0.161269 
20   0.163625 
21   0.159511 
22   0.176503 
23   0.151389 
24   0.35666 
 
$$$$ 
 
