PCCDB-ID:  28421 
public computational chemistry database (PCCDB) project, http://pccdb.org 
 
 32 32  0  0  0  0  0  0  0  0999 V2000 
    1.1766    0.6117   -3.9121 C   0  0  0  0  0  0  0  0  0  0  0  0 
    0.3768   -0.3912   -1.7081 C   0  0  0  0  0  0  0  0  0  0  0  0 
   10.3202   -0.3913   -5.4530 C   0  0  0  0  0  0  0  0  0  0  0  0 
    8.1384   -0.4735   -2.1258 C   0  0  0  0  0  0  0  0  0  0  0  0 
    8.0124   -2.1639   -3.8465 C   0  0  0  0  0  0  0  0  0  0  0  0 
    6.7529   -0.4885   -1.9967 C   0  0  0  0  0  0  0  0  0  0  0  0 
    6.6242   -2.1885   -3.7172 C   0  0  0  0  0  0  0  0  0  0  0  0 
    1.5363    0.2163   -2.4843 C   0  0  0  0  0  0  0  0  0  0  0  0 
   10.8408   -0.9487   -4.1457 C   0  0  0  0  0  0  0  0  0  0  0  0 
    8.7893   -1.2948   -3.0623 C   0  0  0  0  0  0  0  0  0  0  0  0 
    6.0030   -1.3454   -2.8021 C   0  0  0  0  0  0  0  0  0  0  0  0 
    3.8305   -0.3840   -2.6622 C   0  0  0  0  0  0  0  0  0  0  0  0 
   10.1912   -1.2946   -3.1127 N   0  0  0  0  0  0  0  0  0  0  0  0 
   12.1979   -1.0647   -4.0708 O   0  0  0  0  0  0  0  0  0  0  0  0 
    4.1975    0.7634   -2.7704 O   0  0  0  0  0  0  0  0  0  0  0  0 
    2.5726   -0.8126   -2.5092 O   0  0  0  0  0  0  0  0  0  0  0  0 
    4.6171   -1.4870   -2.6675 O   0  0  0  0  0  0  0  0  0  0  0  0 
    0.3868    1.3712   -3.9031 H   0  0  0  0  0  0  0  0  0  0  0  0 
    0.8137   -0.2574   -4.4720 H   0  0  0  0  0  0  0  0  0  0  0  0 
    2.0464    1.0291   -4.4265 H   0  0  0  0  0  0  0  0  0  0  0  0 
   -0.4369    0.3367   -1.6213 H   0  0  0  0  0  0  0  0  0  0  0  0 
    0.6919   -0.6812   -0.7010 H   0  0  0  0  0  0  0  0  0  0  0  0 
   -0.0080   -1.2806   -2.2186 H   0  0  0  0  0  0  0  0  0  0  0  0 
   10.5710   -1.0590   -6.2867 H   0  0  0  0  0  0  0  0  0  0  0  0 
   10.7842    0.5827   -5.6548 H   0  0  0  0  0  0  0  0  0  0  0  0 
    9.2377   -0.2629   -5.4261 H   0  0  0  0  0  0  0  0  0  0  0  0 
    8.7378    0.1786   -1.4983 H   0  0  0  0  0  0  0  0  0  0  0  0 
    8.5042   -2.8374   -4.5424 H   0  0  0  0  0  0  0  0  0  0  0  0 
    6.2606    0.1604   -1.2826 H   0  0  0  0  0  0  0  0  0  0  0  0 
    6.0180   -2.8618   -4.3151 H   0  0  0  0  0  0  0  0  0  0  0  0 
    1.9482    1.0793   -1.9531 H   0  0  0  0  0  0  0  0  0  0  0  0 
   12.5924   -0.7379   -4.8939 H   0  0  0  0  0  0  0  0  0  0  0  0 
  1 18  1  0  0  0  0 
  1  8  1  0  0  0  0 
  2 21  1  0  0  0  0 
  2 22  1  0  0  0  0 
  3 26  1  0  0  0  0 
  3  9  1  0  0  0  0 
  4  6  1  0  0  0  0 
  4 27  1  0  0  0  0 
  5  7  2  0  0  0  0 
  5 10  1  0  0  0  0 
  6 29  1  0  0  0  0 
  7 11  1  0  0  0  0 
  8 31  1  0  0  0  0 
  8  2  1  0  0  0  0 
  9 14  1  0  0  0  0 
  9 13  2  0  0  0  0 
 10  4  2  0  0  0  0 
 11 17  1  0  0  0  0 
 11  6  2  0  0  0  0 
 12 16  1  0  0  0  0 
 13 10  1  0  0  0  0 
 15 12  2  0  0  0  0 
 16  8  1  0  0  0  0 
 17 12  1  0  0  0  0 
 19  1  1  0  0  0  0 
 20  1  1  0  0  0  0 
 23  2  1  0  0  0  0 
 24  3  1  0  0  0  0 
 25  3  1  0  0  0  0 
 28  5  1  0  0  0  0 
 30  7  1  0  0  0  0 
 32 14  1  0  0  0  0 
M  END 
>  <HBA> 
5 
 
>  <HBD> 
1 
 
>  <TPSA> 
64.63 
 
>  <cid> 
28421 
 
>  <dipole> 
3.68 
 
>  <excitation_energy_1> 
4.66 
 
>  <excitation_energy_2> 
4.866 
 
>  <excitation_energy_3> 
4.956 
 
>  <excitation_energy_4> 
5.464 
 
>  <homo_energy> 
-5.717 
 
>  <homo_lumo_gap> 
5.54 
 
>  <logP> 
2.642 
 
>  <lumo_energy> 
-0.177 
 
>  <melting_point> 
85.49 
 
>  <molecular_refractivity> 
63.34 
 
>  <oscillator_strength_1> 
0.1122 
 
>  <oscillator_strength_2> 
0.0958 
 
>  <oscillator_strength_3> 
0.011 
 
>  <oscillator_strength_4> 
0.1413 
 
>  <open_babel_can_smiles> 
CC(OC(=O)Oc1ccc(cc1)/N=C(\O)/C)C 
 
>  <mulliken_charges> 
32 
1   -0.459832 
2   -0.452392 
3   -0.555911 
4   -0.16667 
5   -0.169029 
6   -0.141634 
7   -0.17119 
8   0.127375 
9   0.483266 
10   0.244711 
11   0.338111 
12   0.787764 
13   -0.46588 
14   -0.568829 
15   -0.483635 
16   -0.463697 
17   -0.51887 
18   0.14928 
19   0.154293 
20   0.175185 
21   0.150402 
22   0.16177 
23   0.159428 
24   0.176055 
25   0.172736 
26   0.200533 
27   0.14002 
28   0.129773 
29   0.15246 
30   0.142807 
31   0.163005 
32   0.408596 
 
>  <lowdin_charges> 
32 
1   -0.456995 
2   -0.447586 
3   -0.48237 
4   -0.167369 
5   -0.183797 
6   -0.161297 
7   -0.16896 
8   0.01581 
9   0.149222 
10   0.044371 
11   0.091963 
12   0.235723 
13   -0.17135 
14   -0.361036 
15   -0.281935 
16   -0.178336 
17   -0.146812 
18   0.158676 
19   0.156265 
20   0.167791 
21   0.158442 
22   0.160366 
23   0.159007 
24   0.170985 
25   0.168753 
26   0.183506 
27   0.168043 
28   0.161083 
29   0.175209 
30   0.17015 
31   0.155589 
32   0.356892 
 
$$$$ 
 
