PCCDB-ID:  73069 
public computational chemistry database (PCCDB) project, http://pccdb.org 
 
 17 18  0  0  0  0  0  0  0  0999 V2000 
    2.3855    0.1462   -0.0619 C   0  0  0  0  0  0  0  0  0  0  0  0 
    0.3275   -0.6924   -0.0050 C   0  0  0  0  0  0  0  0  0  0  0  0 
    0.3270    0.6888   -0.0021 C   0  0  0  0  0  0  0  0  0  0  0  0 
   -0.9184   -1.3930   -0.0347 C   0  0  0  0  0  0  0  0  0  0  0  0 
   -2.1036    0.6371    0.0823 C   0  0  0  0  0  0  0  0  0  0  0  0 
   -3.2463    1.2100    0.1744 N   0  0  0  0  0  0  0  0  0  0  0  0 
    1.5893    1.2091   -0.0346 N   0  0  0  0  0  0  0  0  0  0  0  0 
   -0.8630    1.3513    0.0293 N   0  0  0  0  0  0  0  0  0  0  0  0 
   -2.0379   -0.7551    0.0113 N   0  0  0  0  0  0  0  0  0  0  0  0 
    1.6763   -1.0135   -0.0272 N   0  0  0  0  0  0  0  0  0  0  0  0 
   -0.9498   -2.7448   -0.1083 O   0  0  0  0  0  0  0  0  0  0  0  0 
    2.1760   -2.3026   -0.1231 O   0  0  0  0  0  0  0  0  0  0  0  0 
    3.4657    0.1563   -0.0984 H   0  0  0  0  0  0  0  0  0  0  0  0 
   -3.1433    2.2273    0.2151 H   0  0  0  0  0  0  0  0  0  0  0  0 
   -0.8692    2.3625    0.0413 H   0  0  0  0  0  0  0  0  0  0  0  0 
   -0.0459   -3.0706   -0.2613 H   0  0  0  0  0  0  0  0  0  0  0  0 
    2.3893   -2.5660    0.7929 H   0  0  0  0  0  0  0  0  0  0  0  0 
  1  7  2  0  0  0  0 
  1 10  1  0  0  0  0 
  2  3  2  0  0  0  0 
  3  8  1  0  0  0  0 
  4  2  1  0  0  0  0 
  4  9  2  0  0  0  0 
  5  6  1  0  0  0  0 
  6 14  1  0  0  0  0 
  7  3  1  0  0  0  0 
  8 15  1  0  0  0  0 
  8  5  1  0  0  0  0 
  9  5  2  0  0  0  0 
 10  2  1  0  0  0  0 
 11  4  1  0  0  0  0 
 12 10  1  0  0  0  0 
 12 17  1  0  0  0  0 
 13  1  1  0  0  0  0 
 16 11  1  0  0  0  0 
M  RAD  1   6   2 
M  END 
>  <HBA> 
6 
 
>  <HBD> 
3 
 
>  <TPSA> 
109.82 
 
>  <cid> 
73069 
 
>  <dipole> 
7.79 
 
>  <excitation_energy_1> 
3.628 
 
>  <excitation_energy_2> 
3.953 
 
>  <excitation_energy_3> 
4.778 
 
>  <excitation_energy_4> 
4.926 
 
>  <homo_energy> 
-5.521 
 
>  <homo_lumo_gap> 
4.28 
 
>  <logP> 
-0.48 
 
>  <lumo_energy> 
-1.241 
 
>  <melting_point> 
269.28 
 
>  <molecular_refractivity> 
40.1 
 
>  <oscillator_strength_1> 
0.0726 
 
>  <oscillator_strength_2> 
0.0151 
 
>  <oscillator_strength_3> 
0.0001 
 
>  <oscillator_strength_4> 
0.0008 
 
>  <open_babel_can_smiles> 
[NH]C1=[N]=C(c2c(N1)ncn2O)O 
 
>  <mulliken_charges> 
17 
1   0.226182 
2   0.241297 
3   0.501994 
4   0.55864 
5   0.596522 
6   -0.614171 
7   -0.498617 
8   -0.748759 
9   -0.499247 
10   -0.295424 
11   -0.600159 
12   -0.507678 
13   0.188323 
14   0.258689 
15   0.335943 
16   0.414814 
17   0.441649 
 
>  <lowdin_charges> 
17 
1   -0.061785 
2   -0.105632 
3   0.079446 
4   0.151636 
5   0.129076 
6   -0.42399 
7   -0.194768 
8   -0.240194 
9   -0.17535 
10   0.079945 
11   -0.342711 
12   -0.340315 
13   0.183051 
14   0.238959 
15   0.295744 
16   0.354498 
17   0.37239 
 
$$$$ 
 
