PCCDB-ID:  65274 
public computational chemistry database (PCCDB) project, http://pccdb.org 
 
 18 17  0  0  1  0  0  0  0  0999 V2000 
    1.8288   -0.1543    0.6609 C   0  0  0  0  0  0  0  0  0  0  0  0 
    0.9287   -1.0081    1.5885 C   0  0  1  0  0  0  0  0  0  0  0  0 
    3.2868   -0.1161    1.0704 C   0  0  0  0  0  0  0  0  0  0  0  0 
    0.5165   -0.2470    2.8670 C   0  0  0  0  0  0  0  0  0  0  0  0 
   -0.3025   -1.5300    0.9678 N   0  0  0  0  0  0  0  0  0  0  0  0 
    4.2419   -0.7254    0.4655 N   0  0  0  0  0  0  0  0  0  0  0  0 
    3.6352    0.6306    2.1362 O   0  0  0  0  0  0  0  0  0  0  0  0 
    1.2260    0.5746    3.4203 O   0  0  0  0  0  0  0  0  0  0  0  0 
   -0.6830   -0.5769    3.3317 O   0  0  0  0  0  0  0  0  0  0  0  0 
    3.7576   -1.4568   -0.6594 O   0  0  0  0  0  0  0  0  0  0  0  0 
    1.4459    0.8734    0.6199 H   0  0  0  0  0  0  0  0  0  0  0  0 
    1.7812   -0.5787   -0.3433 H   0  0  0  0  0  0  0  0  0  0  0  0 
    1.5015   -1.8793    1.9312 H   0  0  0  0  0  0  0  0  0  0  0  0 
   -0.6924   -0.8490    0.3164 H   0  0  0  0  0  0  0  0  0  0  0  0 
   -0.1109   -2.3743    0.4340 H   0  0  0  0  0  0  0  0  0  0  0  0 
    2.8271    0.7912    2.6776 H   0  0  0  0  0  0  0  0  0  0  0  0 
   -1.0507   -1.2038    2.6529 H   0  0  0  0  0  0  0  0  0  0  0  0 
    4.5891   -1.7696   -1.0457 H   0  0  0  0  0  0  0  0  0  0  0  0 
  1  3  1  0  0  0  0 
  1  2  1  0  0  0  0 
  2 13  1  1  0  0  0 
  2  4  1  0  0  0  0 
  3  7  1  0  0  0  0 
  4  9  1  0  0  0  0 
  4  8  2  0  0  0  0 
  5  2  1  0  0  0  0 
  6  3  2  0  0  0  0 
  7 16  1  0  0  0  0 
 10  6  1  0  0  0  0 
 11  1  1  0  0  0  0 
 12  1  1  0  0  0  0 
 14  5  1  0  0  0  0 
 15  5  1  0  0  0  0 
 17  9  1  0  0  0  0 
 18 10  1  0  0  0  0 
M  END 
>  <HBA> 
6 
 
>  <HBD> 
4 
 
>  <TPSA> 
112.65 
 
>  <cid> 
65274 
 
>  <dipole> 
5.93 
 
>  <excitation_energy_1> 
4.661 
 
>  <excitation_energy_2> 
5.403 
 
>  <excitation_energy_3> 
5.638 
 
>  <excitation_energy_4> 
5.856 
 
>  <homo_energy> 
-5.997 
 
>  <homo_lumo_gap> 
5.565 
 
>  <logP> 
-0.615 
 
>  <lumo_energy> 
-0.433 
 
>  <melting_point> 
208.65 
 
>  <molecular_refractivity> 
29.55 
 
>  <oscillator_strength_1> 
0.0012 
 
>  <oscillator_strength_2> 
0.018 
 
>  <oscillator_strength_3> 
0.0042 
 
>  <oscillator_strength_4> 
0.0002 
 
>  <open_babel_can_smiles> 
O/N=C(\C[C@@H](C(=O)O)N)/O 
 
>  <mulliken_charges> 
18 
1   -0.378847 
2   -0.092677 
3   0.50963 
4   0.633027 
5   -0.772718 
6   -0.243823 
7   -0.616903 
8   -0.484711 
9   -0.559155 
10   -0.539799 
11   0.171929 
12   0.193912 
13   0.206309 
14   0.329603 
15   0.337634 
16   0.448176 
17   0.440389 
18   0.418026 
 
>  <lowdin_charges> 
18 
1   -0.317165 
2   -0.108384 
3   0.096776 
4   0.191329 
5   -0.540234 
6   -0.10641 
7   -0.375003 
8   -0.265908 
9   -0.32897 
10   -0.410562 
11   0.165526 
12   0.178816 
13   0.182043 
14   0.273324 
15   0.280775 
16   0.361996 
17   0.36613 
18   0.355921 
 
$$$$ 
 
