PCCDB-ID:  25405 
public computational chemistry database (PCCDB) project, http://pccdb.org 
 
 25 26  0  0  1  0  0  0  0  0999 V2000 
    0.5984    1.7459   -0.8866 C   0  0  0  0  0  0  0  0  0  0  0  0 
   -0.2303   -2.9381   -1.2438 C   0  0  0  0  0  0  0  0  0  0  0  0 
   -0.2541    0.7328   -1.6441 C   0  0  0  0  0  0  0  0  0  0  0  0 
   -0.6857   -1.5932   -1.8013 C   0  0  0  0  0  0  0  0  0  0  0  0 
   -0.6016    2.6907    1.2291 C   0  0  0  0  0  0  0  0  0  0  0  0 
    1.6354   -4.0431   -2.6944 C   0  0  0  0  0  0  0  0  0  0  0  0 
    0.3320    1.7420    0.6024 C   0  0  2  0  0  0  0  0  0  0  0  0 
    1.2240   -3.2335   -1.5371 C   0  0  2  0  0  0  0  0  0  0  0  0 
    0.0700   -0.5671   -1.1791 O   0  0  0  0  0  0  0  0  0  0  0  0 
    0.8151    2.8763    1.3363 O   0  0  0  0  0  0  0  0  0  0  0  0 
    1.6402   -4.5967   -1.3728 O   0  0  0  0  0  0  0  0  0  0  0  0 
    0.4081    2.7498   -1.2851 H   0  0  0  0  0  0  0  0  0  0  0  0 
    1.6578    1.5215   -1.0645 H   0  0  0  0  0  0  0  0  0  0  0  0 
   -0.8532   -3.7352   -1.6677 H   0  0  0  0  0  0  0  0  0  0  0  0 
   -0.3887   -2.9450   -0.1579 H   0  0  0  0  0  0  0  0  0  0  0  0 
   -0.0634    0.8094   -2.7277 H   0  0  0  0  0  0  0  0  0  0  0  0 
   -1.3274    0.9351   -1.4846 H   0  0  0  0  0  0  0  0  0  0  0  0 
   -1.7616   -1.4455   -1.6089 H   0  0  0  0  0  0  0  0  0  0  0  0 
   -0.5403   -1.5597   -2.8949 H   0  0  0  0  0  0  0  0  0  0  0  0 
   -1.1112    2.4248    2.1558 H   0  0  0  0  0  0  0  0  0  0  0  0 
   -1.1217    3.4239    0.6104 H   0  0  0  0  0  0  0  0  0  0  0  0 
    2.6176   -3.8947   -3.1443 H   0  0  0  0  0  0  0  0  0  0  0  0 
    0.8763   -4.4472   -3.3661 H   0  0  0  0  0  0  0  0  0  0  0  0 
    0.4965    0.7867    1.1016 H   0  0  0  0  0  0  0  0  0  0  0  0 
    1.9340   -2.5018   -1.1507 H   0  0  0  0  0  0  0  0  0  0  0  0 
  1  7  1  0  0  0  0 
  2 15  1  0  0  0  0 
  3 17  1  0  0  0  0 
  3  9  1  0  0  0  0 
  3  1  1  0  0  0  0 
  4 18  1  0  0  0  0 
  4  2  1  0  0  0  0 
  4  9  1  0  0  0  0 
  5 10  1  0  0  0  0 
  5 20  1  0  0  0  0 
  6  8  1  0  0  0  0 
  6 11  1  0  0  0  0 
  7 24  1  1  0  0  0 
  7  5  1  0  0  0  0 
  7 10  1  0  0  0  0 
  8 11  1  0  0  0  0 
  8  2  1  0  0  0  0 
  8 25  1  1  0  0  0 
 12  1  1  0  0  0  0 
 13  1  1  0  0  0  0 
 14  2  1  0  0  0  0 
 16  3  1  0  0  0  0 
 19  4  1  0  0  0  0 
 21  5  1  0  0  0  0 
 22  6  1  0  0  0  0 
 23  6  1  0  0  0  0 
M  END 
>  <HBA> 
3 
 
>  <HBD> 
0 
 
>  <TPSA> 
34.29 
 
>  <cid> 
25405 
 
>  <dipole> 
3.77 
 
>  <excitation_energy_1> 
6.442 
 
>  <excitation_energy_2> 
6.688 
 
>  <excitation_energy_3> 
6.833 
 
>  <excitation_energy_4> 
6.918 
 
>  <homo_energy> 
-7.021 
 
>  <homo_lumo_gap> 
8.944 
 
>  <logP> 
0.581 
 
>  <lumo_energy> 
1.924 
 
>  <melting_point> 
-9.58 
 
>  <molecular_refractivity> 
39.6 
 
>  <oscillator_strength_1> 
0.0265 
 
>  <oscillator_strength_2> 
0.0113 
 
>  <oscillator_strength_3> 
0.0014 
 
>  <oscillator_strength_4> 
0.0071 
 
>  <open_babel_can_smiles> 
O(CC[C@H]1OC1)CC[C@H]1OC1 
 
>  <mulliken_charges> 
25 
1   -0.306522 
2   -0.306642 
3   -0.013134 
4   -0.013036 
5   -0.11225 
6   -0.112309 
7   0.113535 
8   0.11351 
9   -0.479439 
10   -0.449578 
11   -0.449511 
12   0.146857 
13   0.161327 
14   0.1469 
15   0.161304 
16   0.126144 
17   0.122011 
18   0.126146 
19   0.121973 
20   0.149503 
21   0.14368 
22   0.149582 
23   0.143638 
24   0.15812 
25   0.158192 
 
>  <lowdin_charges> 
25 
1   -0.28392 
2   -0.28497 
3   -0.122107 
4   -0.122663 
5   -0.171565 
6   -0.172154 
7   -0.022774 
8   -0.02316 
9   -0.279764 
10   -0.288115 
11   -0.288276 
12   0.157242 
13   0.158404 
14   0.158914 
15   0.157927 
16   0.129169 
17   0.125167 
18   0.129209 
19   0.124575 
20   0.153587 
21   0.149887 
22   0.153118 
23   0.149759 
24   0.155474 
25   0.157034 
 
$$$$ 
 
