PCCDB-ID:  25948 
public computational chemistry database (PCCDB) project, http://pccdb.org 
 
 30 31  0  0  0  0  0  0  0  0999 V2000 
    2.3084    0.2668   -2.3759 C   0  0  0  0  0  0  0  0  0  0  0  0 
    3.3356    6.1907   -0.0771 C   0  0  0  0  0  0  0  0  0  0  0  0 
    4.4439   -1.2670    0.3832 C   0  0  0  0  0  0  0  0  0  0  0  0 
    4.5038   -0.2412    1.3255 C   0  0  0  0  0  0  0  0  0  0  0  0 
    3.7219   -1.0746   -0.7935 C   0  0  0  0  0  0  0  0  0  0  0  0 
    3.8338    0.9547    1.0789 C   0  0  0  0  0  0  0  0  0  0  0  0 
    1.0399    2.5701   -0.5698 C   0  0  0  0  0  0  0  0  0  0  0  0 
    0.4221    3.8094   -0.7008 C   0  0  0  0  0  0  0  0  0  0  0  0 
    3.1232    3.6705   -0.1335 C   0  0  0  0  0  0  0  0  0  0  0  0 
    3.0415    0.1214   -1.0594 C   0  0  0  0  0  0  0  0  0  0  0  0 
    2.5305    4.9272   -0.2585 C   0  0  0  0  0  0  0  0  0  0  0  0 
    2.4099    2.4704   -0.2869 C   0  0  0  0  0  0  0  0  0  0  0  0 
    3.0926    1.1590   -0.0981 C   0  0  0  0  0  0  0  0  0  0  0  0 
    1.1501    4.9992   -0.5514 C   0  0  0  0  0  0  0  0  0  0  0  0 
    0.5063    6.2408   -0.6263 N   0  0  0  0  0  0  0  0  0  0  0  0 
    2.7212   -0.4198   -3.1225 H   0  0  0  0  0  0  0  0  0  0  0  0 
    2.3785    1.2854   -2.7691 H   0  0  0  0  0  0  0  0  0  0  0  0 
    1.2396    0.0348   -2.2817 H   0  0  0  0  0  0  0  0  0  0  0  0 
    4.3683    5.9621    0.2014 H   0  0  0  0  0  0  0  0  0  0  0  0 
    2.9083    6.8300    0.7069 H   0  0  0  0  0  0  0  0  0  0  0  0 
    3.3749    6.7950   -0.9965 H   0  0  0  0  0  0  0  0  0  0  0  0 
    4.9600   -2.2076    0.5574 H   0  0  0  0  0  0  0  0  0  0  0  0 
    5.0628   -0.3711    2.2486 H   0  0  0  0  0  0  0  0  0  0  0  0 
    3.6924   -1.8679   -1.5376 H   0  0  0  0  0  0  0  0  0  0  0  0 
    3.8628    1.7508    1.8183 H   0  0  0  0  0  0  0  0  0  0  0  0 
    0.4425    1.6686   -0.6695 H   0  0  0  0  0  0  0  0  0  0  0  0 
   -0.6445    3.8615   -0.9112 H   0  0  0  0  0  0  0  0  0  0  0  0 
    4.1888    3.6207    0.0799 H   0  0  0  0  0  0  0  0  0  0  0  0 
   -0.3841    6.2201   -1.1088 H   0  0  0  0  0  0  0  0  0  0  0  0 
    1.0818    7.0048   -0.9585 H   0  0  0  0  0  0  0  0  0  0  0  0 
  1 18  1  0  0  0  0 
  1 10  1  0  0  0  0 
  2 19  1  0  0  0  0 
  2 20  1  0  0  0  0 
  3 22  1  0  0  0  0 
  3  4  2  0  0  0  0 
  4 23  1  0  0  0  0 
  5  3  1  0  0  0  0 
  6  4  1  0  0  0  0 
  6 25  1  0  0  0  0 
  7 12  1  0  0  0  0 
  8  7  2  0  0  0  0 
  8 14  1  0  0  0  0 
  9 28  1  0  0  0  0 
 10  5  2  0  0  0  0 
 10 13  1  0  0  0  0 
 11  9  1  0  0  0  0 
 11  2  1  0  0  0  0 
 12  9  2  0  0  0  0 
 12 13  1  0  0  0  0 
 13  6  2  0  0  0  0 
 14 11  2  0  0  0  0 
 15 14  1  0  0  0  0 
 16  1  1  0  0  0  0 
 17  1  1  0  0  0  0 
 21  2  1  0  0  0  0 
 24  5  1  0  0  0  0 
 26  7  1  0  0  0  0 
 27  8  1  0  0  0  0 
 29 15  1  0  0  0  0 
 30 15  1  0  0  0  0 
M  END 
>  <HBA> 
1 
 
>  <HBD> 
1 
 
>  <TPSA> 
26.02 
 
>  <cid> 
25948 
 
>  <dipole> 
2.34 
 
>  <excitation_energy_1> 
4.489 
 
>  <excitation_energy_2> 
4.531 
 
>  <excitation_energy_3> 
4.623 
 
>  <excitation_energy_4> 
4.739 
 
>  <homo_energy> 
-5.216 
 
>  <homo_lumo_gap> 
5.078 
 
>  <logP> 
4.134 
 
>  <lumo_energy> 
-0.139 
 
>  <melting_point> 
100.42 
 
>  <molecular_refractivity> 
66.21 
 
>  <oscillator_strength_1> 
0.0424 
 
>  <oscillator_strength_2> 
0.3236 
 
>  <oscillator_strength_3> 
0.0231 
 
>  <oscillator_strength_4> 
0.0125 
 
>  <open_babel_can_smiles> 
Cc1cc(ccc1N)c1ccccc1C 
 
>  <mulliken_charges> 
30 
1   -0.531937 
2   -0.553318 
3   -0.122485 
4   -0.13735 
5   -0.191158 
6   -0.167745 
7   -0.179167 
8   -0.175405 
9   -0.251109 
10   0.143669 
11   0.168072 
12   0.072915 
13   0.020354 
14   0.244852 
15   -0.791916 
16   0.149802 
17   0.167765 
18   0.15775 
19   0.161397 
20   0.168069 
21   0.147057 
22   0.123342 
23   0.124038 
24   0.117945 
25   0.128933 
26   0.127374 
27   0.114558 
28   0.123106 
29   0.318703 
30   0.321892 
 
>  <lowdin_charges> 
30 
1   -0.443951 
2   -0.445024 
3   -0.160142 
4   -0.162977 
5   -0.169011 
6   -0.162662 
7   -0.154219 
8   -0.198039 
9   -0.160841 
10   -0.003868 
11   -0.037776 
12   -0.029005 
13   -0.010598 
14   0.049116 
15   -0.490386 
16   0.155473 
17   0.163615 
18   0.154952 
19   0.160441 
20   0.161523 
21   0.149237 
22   0.154986 
23   0.155185 
24   0.152755 
25   0.158557 
26   0.1585 
27   0.149368 
28   0.154008 
29   0.27407 
30   0.276715 
 
$$$$ 
 
