PCCDB-ID:  13628 
public computational chemistry database (PCCDB) project, http://pccdb.org 
 
 19 19  0  0  1  0  0  0  0  0999 V2000 
    0.9633   -0.1626    0.0263 C   0  0  0  0  0  0  0  0  0  0  0  0 
    2.4930   -0.0136    0.1246 C   0  0  0  0  0  0  0  0  0  0  0  0 
    2.9356    0.5641    1.4459 C   0  0  2  0  0  0  0  0  0  0  0  0 
    3.8041    0.3704    3.5856 C   0  0  0  0  0  0  0  0  0  0  0  0 
    3.0553    2.5982    2.8015 C   0  0  0  0  0  0  0  0  0  0  0  0 
    4.3127   -0.2747    4.5634 N   0  0  0  0  0  0  0  0  0  0  0  0 
    2.8953    3.8419    3.0480 N   0  0  0  0  0  0  0  0  0  0  0  0 
    3.4374   -0.2003    2.3559 N   0  0  0  0  0  0  0  0  0  0  0  0 
    2.7366    1.9204    1.6116 N   0  0  0  0  0  0  0  0  0  0  0  0 
    3.5936    1.7473    3.7385 N   0  0  0  0  0  0  0  0  0  0  0  0 
    0.6884   -0.6086   -0.9347 H   0  0  0  0  0  0  0  0  0  0  0  0 
    0.4506    0.8029    0.1064 H   0  0  0  0  0  0  0  0  0  0  0  0 
    0.5882   -0.8106    0.8245 H   0  0  0  0  0  0  0  0  0  0  0  0 
    2.8615    0.6204   -0.6935 H   0  0  0  0  0  0  0  0  0  0  0  0 
    2.9726   -0.9903    0.0287 H   0  0  0  0  0  0  0  0  0  0  0  0 
    4.3994   -1.2548    4.2895 H   0  0  0  0  0  0  0  0  0  0  0  0 
    2.4884    4.3369    2.2543 H   0  0  0  0  0  0  0  0  0  0  0  0 
    2.3395    2.4637    0.8582 H   0  0  0  0  0  0  0  0  0  0  0  0 
    3.8551    2.1588    4.6253 H   0  0  0  0  0  0  0  0  0  0  0  0 
  1 12  1  0  0  0  0 
  1  2  1  0  0  0  0 
  1 13  1  0  0  0  0 
  3  2  1  1  0  0  0 
  3  9  1  0  0  0  0 
  3  8  1  0  0  0  0 
  4 10  1  0  0  0  0 
  4  6  1  0  0  0  0 
  5  7  2  0  0  0  0 
  5 10  1  0  0  0  0 
  8  4  2  0  0  0  0 
  9  5  1  0  0  0  0 
 10 19  1  0  0  0  0 
 11  1  1  0  0  0  0 
 14  2  1  0  0  0  0 
 15  2  1  0  0  0  0 
 16  6  1  0  0  0  0 
 17  7  1  0  0  0  0 
 18  9  1  0  0  0  0 
M  RAD  2   3   2   6   2 
M  END 
>  <HBA> 
5 
 
>  <HBD> 
2 
 
>  <TPSA> 
90.71 
 
>  <cid> 
13628 
 
>  <dipole> 
5.8 
 
>  <excitation_energy_1> 
4.807 
 
>  <excitation_energy_2> 
5.134 
 
>  <excitation_energy_3> 
5.339 
 
>  <excitation_energy_4> 
5.35 
 
>  <homo_energy> 
-6.294 
 
>  <homo_lumo_gap> 
5.47 
 
>  <logP> 
0.761 
 
>  <lumo_energy> 
-0.825 
 
>  <melting_point> 
153.32 
 
>  <molecular_refractivity> 
38.41 
 
>  <oscillator_strength_1> 
0.0264 
 
>  <oscillator_strength_2> 
0.079 
 
>  <oscillator_strength_3> 
0.0073 
 
>  <oscillator_strength_4> 
0.0004 
 
>  <open_babel_can_smiles> 
CC[C]1NC(=N)NC(=N1)[NH] 
 
>  <mulliken_charges> 
19 
1   -0.448837 
2   -0.344108 
3   0.525571 
4   0.603095 
5   0.689272 
6   -0.646244 
7   -0.645573 
8   -0.503189 
9   -0.680543 
10   -0.643332 
11   0.164591 
12   0.144638 
13   0.1761 
14   0.152026 
15   0.1898 
16   0.29566 
17   0.274638 
18   0.337822 
19   0.358613 
 
>  <lowdin_charges> 
19 
1   -0.43969 
2   -0.282349 
3   0.12613 
4   0.119001 
5   0.135034 
6   -0.423692 
7   -0.454652 
8   -0.224756 
9   -0.254652 
10   -0.233717 
11   0.161357 
12   0.14733 
13   0.165547 
14   0.155214 
15   0.177864 
16   0.262305 
17   0.254695 
18   0.296909 
19   0.312122 
 
$$$$ 
 
