PCCDB-ID:  70644 
public computational chemistry database (PCCDB) project, http://pccdb.org 
 
 18 18  0  0  0  0  0  0  0  0999 V2000 
   -0.6111    1.1608    0.0043 C   0  0  0  0  0  0  0  0  0  0  0  0 
   -1.3114   -0.0380   -0.0338 C   0  0  0  0  0  0  0  0  0  0  0  0 
    1.4676   -0.0708    0.0911 C   0  0  0  0  0  0  0  0  0  0  0  0 
    0.7673   -1.2697    0.0526 C   0  0  0  0  0  0  0  0  0  0  0  0 
    0.7906    1.1642    0.0646 C   0  0  0  0  0  0  0  0  0  0  0  0 
   -0.6343   -1.2730   -0.0077 C   0  0  0  0  0  0  0  0  0  0  0  0 
    1.5449    2.4449    0.1112 C   0  0  0  0  0  0  0  0  0  0  0  0 
   -1.3888   -2.5536   -0.0546 C   0  0  0  0  0  0  0  0  0  0  0  0 
    2.7737    2.4153   -0.4433 O   0  0  0  0  0  0  0  0  0  0  0  0 
   -2.6155   -2.5250    0.5044 O   0  0  0  0  0  0  0  0  0  0  0  0 
    0.9957    3.8266    0.8089 S   0  0  0  0  0  0  0  0  0  0  0  0 
   -0.8420   -3.9334   -0.7577 S   0  0  0  0  0  0  0  0  0  0  0  0 
   -1.1380    2.1083   -0.0236 H   0  0  0  0  0  0  0  0  0  0  0  0 
   -2.3934   -0.0063   -0.1365 H   0  0  0  0  0  0  0  0  0  0  0  0 
    2.5495   -0.1027    0.1945 H   0  0  0  0  0  0  0  0  0  0  0  0 
    1.2943   -2.2172    0.0800 H   0  0  0  0  0  0  0  0  0  0  0  0 
    2.8935    1.5909   -0.9485 H   0  0  0  0  0  0  0  0  0  0  0  0 
   -2.7338   -1.7009    1.0108 H   0  0  0  0  0  0  0  0  0  0  0  0 
  1  5  2  0  0  0  0 
  2  6  2  0  0  0  0 
  2  1  1  0  0  0  0 
  3 15  1  0  0  0  0 
  4 16  1  0  0  0  0 
  4  3  2  0  0  0  0 
  5  3  1  0  0  0  0 
  5  7  1  0  0  0  0 
  6  4  1  0  0  0  0 
  7 11  2  0  0  0  0 
  8  6  1  0  0  0  0 
  8 10  1  0  0  0  0 
  9  7  1  0  0  0  0 
 10 18  1  0  0  0  0 
 12  8  2  0  0  0  0 
 13  1  1  0  0  0  0 
 14  2  1  0  0  0  0 
 17  9  1  0  0  0  0 
M  END 
>  <HBA> 
4 
 
>  <HBD> 
2 
 
>  <TPSA> 
111.74 
 
>  <cid> 
70644 
 
>  <dipole> 
0.01 
 
>  <excitation_energy_1> 
2.445 
 
>  <excitation_energy_2> 
2.464 
 
>  <excitation_energy_3> 
3.784 
 
>  <excitation_energy_4> 
3.807 
 
>  <homo_energy> 
-6.357 
 
>  <homo_lumo_gap> 
3.366 
 
>  <logP> 
1.827 
 
>  <lumo_energy> 
-2.991 
 
>  <melting_point> 
115.96 
 
>  <molecular_refractivity> 
53.08 
 
>  <oscillator_strength_1> 
0.0 
 
>  <oscillator_strength_2> 
0.0281 
 
>  <oscillator_strength_3> 
0.3817 
 
>  <oscillator_strength_4> 
0.0001 
 
>  <open_babel_can_smiles> 
OC(=S)c1ccc(cc1)C(=S)O 
 
>  <mulliken_charges> 
18 
1   -0.146944 
2   -0.202725 
3   -0.202723 
4   -0.147032 
5   0.094801 
6   0.094736 
7   0.16401 
8   0.163935 
9   -0.522749 
10   -0.522665 
11   -0.140809 
12   -0.140694 
13   0.180873 
14   0.156766 
15   0.15668 
16   0.180787 
17   0.416868 
18   0.416885 
 
>  <lowdin_charges> 
18 
1   -0.123615 
2   -0.159575 
3   -0.159548 
4   -0.123687 
5   -0.028098 
6   -0.02804 
7   0.006194 
8   0.006174 
9   -0.318781 
10   -0.318702 
11   -0.090272 
12   -0.090215 
13   0.186983 
14   0.165616 
15   0.165578 
16   0.186936 
17   0.361508 
18   0.361543 
 
$$$$ 
 
