PCCDB-ID:  58255 
public computational chemistry database (PCCDB) project, http://pccdb.org 
 
 40 41  0  0  1  0  0  0  0  0999 V2000 
    2.9777    3.3248    1.4803 C   0  0  0  0  0  0  0  0  0  0  0  0 
    6.3286    5.7829   -1.9181 C   0  0  0  0  0  0  0  0  0  0  0  0 
    0.6054   -1.4726    0.3684 C   0  0  0  0  0  0  0  0  0  0  0  0 
    1.3398   -0.7698   -0.7837 C   0  0  0  0  0  0  0  0  0  0  0  0 
    1.2231   -1.1067    1.7267 C   0  0  0  0  0  0  0  0  0  0  0  0 
    2.8472   -1.0695   -0.7598 C   0  0  0  0  0  0  0  0  0  0  0  0 
    2.7312   -1.4007    1.7530 C   0  0  0  0  0  0  0  0  0  0  0  0 
    6.2211    2.1338   -1.0943 C   0  0  0  0  0  0  0  0  0  0  0  0 
    5.3633    1.1667   -0.5659 C   0  0  0  0  0  0  0  0  0  0  0  0 
    4.9864    3.8493    0.0245 C   0  0  0  0  0  0  0  0  0  0  0  0 
    4.1118    2.9132    0.5757 C   0  0  0  0  0  0  0  0  0  0  0  0 
    7.0224    4.5192   -1.3759 C   0  0  2  0  0  0  0  0  0  0  0  0 
    6.0499    3.4900   -0.8169 C   0  0  0  0  0  0  0  0  0  0  0  0 
    3.4812   -0.7253    0.5985 C   0  0  0  0  0  0  0  0  0  0  0  0 
    4.3090    1.5501    0.2689 C   0  0  0  0  0  0  0  0  0  0  0  0 
    8.0651    4.7955   -0.3645 N   0  0  0  0  0  0  0  0  0  0  0  0 
    3.4183    0.6905    0.8550 O   0  0  0  0  0  0  0  0  0  0  0  0 
    2.9797    4.4075    1.6401 H   0  0  0  0  0  0  0  0  0  0  0  0 
    3.0467    2.8315    2.4571 H   0  0  0  0  0  0  0  0  0  0  0  0 
    2.0050    3.0428    1.0586 H   0  0  0  0  0  0  0  0  0  0  0  0 
    5.5841    5.5370   -2.6846 H   0  0  0  0  0  0  0  0  0  0  0  0 
    7.0687    6.4556   -2.3695 H   0  0  0  0  0  0  0  0  0  0  0  0 
    5.8216    6.3400   -1.1212 H   0  0  0  0  0  0  0  0  0  0  0  0 
    0.6623   -2.5624    0.2243 H   0  0  0  0  0  0  0  0  0  0  0  0 
   -0.4605   -1.2121    0.3534 H   0  0  0  0  0  0  0  0  0  0  0  0 
    1.1907    0.3146   -0.7023 H   0  0  0  0  0  0  0  0  0  0  0  0 
    0.9185   -1.0742   -1.7498 H   0  0  0  0  0  0  0  0  0  0  0  0 
    0.7256   -1.6575    2.5348 H   0  0  0  0  0  0  0  0  0  0  0  0 
    1.0631   -0.0396    1.9258 H   0  0  0  0  0  0  0  0  0  0  0  0 
    3.3580   -0.5243   -1.5612 H   0  0  0  0  0  0  0  0  0  0  0  0 
    3.0163   -2.1398   -0.9469 H   0  0  0  0  0  0  0  0  0  0  0  0 
    2.8975   -2.4840    1.6697 H   0  0  0  0  0  0  0  0  0  0  0  0 
    3.1747   -1.0791    2.7023 H   0  0  0  0  0  0  0  0  0  0  0  0 
    7.0417    1.8177   -1.7340 H   0  0  0  0  0  0  0  0  0  0  0  0 
    5.5261    0.1247   -0.8149 H   0  0  0  0  0  0  0  0  0  0  0  0 
    4.8198    4.8971    0.2655 H   0  0  0  0  0  0  0  0  0  0  0  0 
    7.5426    4.0453   -2.2193 H   0  0  0  0  0  0  0  0  0  0  0  0 
    4.5321   -1.0421    0.6226 H   0  0  0  0  0  0  0  0  0  0  0  0 
    7.6203    5.1533    0.4814 H   0  0  0  0  0  0  0  0  0  0  0  0 
    8.6713    5.5445   -0.7027 H   0  0  0  0  0  0  0  0  0  0  0  0 
  1 18  1  0  0  0  0 
  1 19  1  0  0  0  0 
  2 12  1  0  0  0  0 
  2 23  1  0  0  0  0 
  3  5  1  0  0  0  0 
  4  6  1  0  0  0  0 
  4 26  1  0  0  0  0 
  4  3  1  0  0  0  0 
  5  7  1  0  0  0  0 
  5 29  1  0  0  0  0 
  5 28  1  0  0  0  0 
  6 14  1  0  0  0  0 
  7 33  1  0  0  0  0 
  8 13  2  0  0  0  0 
  8  9  1  0  0  0  0 
  9 15  2  0  0  0  0 
 10 36  1  0  0  0  0 
 10 11  2  0  0  0  0 
 11  1  1  0  0  0  0 
 12 37  1  6  0  0  0 
 12 13  1  0  0  0  0 
 12 16  1  0  0  0  0 
 13 10  1  0  0  0  0 
 14 38  1  0  0  0  0 
 14 17  1  0  0  0  0 
 14  7  1  0  0  0  0 
 15 11  1  0  0  0  0 
 15 17  1  0  0  0  0 
 16 39  1  0  0  0  0 
 20  1  1  0  0  0  0 
 21  2  1  0  0  0  0 
 22  2  1  0  0  0  0 
 24  3  1  0  0  0  0 
 25  3  1  0  0  0  0 
 27  4  1  0  0  0  0 
 30  6  1  0  0  0  0 
 31  6  1  0  0  0  0 
 32  7  1  0  0  0  0 
 34  8  1  0  0  0  0 
 35  9  1  0  0  0  0 
 40 16  1  0  0  0  0 
M  END 
>  <HBA> 
2 
 
>  <HBD> 
1 
 
>  <TPSA> 
35.25 
 
>  <cid> 
58255 
 
>  <dipole> 
0.99 
 
>  <excitation_energy_1> 
4.9 
 
>  <excitation_energy_2> 
5.123 
 
>  <excitation_energy_3> 
5.346 
 
>  <excitation_energy_4> 
5.385 
 
>  <homo_energy> 
-5.554 
 
>  <homo_lumo_gap> 
5.804 
 
>  <logP> 
4.426 
 
>  <lumo_energy> 
0.25 
 
>  <melting_point> 
90.94 
 
>  <molecular_refractivity> 
72.3 
 
>  <oscillator_strength_1> 
0.0302 
 
>  <oscillator_strength_2> 
0.021 
 
>  <oscillator_strength_3> 
0.0041 
 
>  <oscillator_strength_4> 
0.0549 
 
>  <open_babel_can_smiles> 
Cc1cc(ccc1OC1CCCCC1)[C@H](N)C 
 
>  <mulliken_charges> 
40 
1   -0.514335 
2   -0.451558 
3   -0.259756 
4   -0.259732 
5   -0.261594 
6   -0.283197 
7   -0.274266 
8   -0.198512 
9   -0.187453 
10   -0.258737 
11   0.124065 
12   -0.059628 
13   0.199859 
14   0.131013 
15   0.329028 
16   -0.69938 
17   -0.545526 
18   0.143605 
19   0.163881 
20   0.161231 
21   0.148548 
22   0.13409 
23   0.139332 
24   0.124483 
25   0.132006 
26   0.146551 
27   0.131418 
28   0.130608 
29   0.149827 
30   0.147868 
31   0.130934 
32   0.131145 
33   0.145274 
34   0.12477 
35   0.132564 
36   0.111807 
37   0.132023 
38   0.131053 
39   0.28967 
40   0.287021 
 
>  <lowdin_charges> 
40 
1   -0.434958 
2   -0.464288 
3   -0.274211 
4   -0.276681 
5   -0.279227 
6   -0.293666 
7   -0.280913 
8   -0.153958 
9   -0.212329 
10   -0.171534 
11   -0.024661 
12   -0.061882 
13   -0.023002 
14   0.006852 
15   0.093938 
16   -0.55115 
17   -0.207422 
18   0.149925 
19   0.161297 
20   0.159402 
21   0.154245 
22   0.146156 
23   0.145507 
24   0.133301 
25   0.142673 
26   0.144617 
27   0.144519 
28   0.145198 
29   0.146533 
30   0.153986 
31   0.142928 
32   0.142439 
33   0.152482 
34   0.156987 
35   0.159342 
36   0.148449 
37   0.142576 
38   0.136507 
39   0.251144 
40   0.248877 
 
$$$$ 
 
