PCCDB-ID:  25424 
public computational chemistry database (PCCDB) project, http://pccdb.org 
 
 23 22  0  0  0  0  0  0  0  0999 V2000 
    1.4413    1.1162    0.8819 C   0  0  0  0  0  0  0  0  0  0  0  0 
    5.7332   -4.9917    2.7015 C   0  0  0  0  0  0  0  0  0  0  0  0 
    2.8626    0.5857    0.6684 C   0  0  0  0  0  0  0  0  0  0  0  0 
    3.2468   -0.5123    1.6678 C   0  0  0  0  0  0  0  0  0  0  0  0 
    4.6645   -1.0424    1.4538 C   0  0  0  0  0  0  0  0  0  0  0  0 
    6.6548   -3.8377    2.3821 C   0  0  0  0  0  0  0  0  0  0  0  0 
    5.0857   -2.0990    2.4621 C   0  0  0  0  0  0  0  0  0  0  0  0 
    6.3651   -2.6093    2.2099 N   0  0  0  0  0  0  0  0  0  0  0  0 
    7.9604   -4.1701    2.2263 O   0  0  0  0  0  0  0  0  0  0  0  0 
    4.4045   -2.4047    3.4307 O   0  0  0  0  0  0  0  0  0  0  0  0 
    1.1925    1.9000    0.1573 H   0  0  0  0  0  0  0  0  0  0  0  0 
    1.3245    1.5407    1.8865 H   0  0  0  0  0  0  0  0  0  0  0  0 
    0.6995    0.3150    0.7747 H   0  0  0  0  0  0  0  0  0  0  0  0 
    4.6976   -4.6644    2.7725 H   0  0  0  0  0  0  0  0  0  0  0  0 
    6.0119   -5.4291    3.6682 H   0  0  0  0  0  0  0  0  0  0  0  0 
    5.8290   -5.7726    1.9363 H   0  0  0  0  0  0  0  0  0  0  0  0 
    3.5787    1.4165    0.7460 H   0  0  0  0  0  0  0  0  0  0  0  0 
    2.9586    0.1991   -0.3566 H   0  0  0  0  0  0  0  0  0  0  0  0 
    2.5331   -1.3439    1.5966 H   0  0  0  0  0  0  0  0  0  0  0  0 
    3.1579   -0.1334    2.6934 H   0  0  0  0  0  0  0  0  0  0  0  0 
    5.4033   -0.2300    1.5076 H   0  0  0  0  0  0  0  0  0  0  0  0 
    4.7875   -1.4669    0.4465 H   0  0  0  0  0  0  0  0  0  0  0  0 
    8.0675   -5.1263    2.3539 H   0  0  0  0  0  0  0  0  0  0  0  0 
  1 12  1  0  0  0  0 
  2 14  1  0  0  0  0 
  2 15  1  0  0  0  0 
  3 17  1  0  0  0  0 
  3  1  1  0  0  0  0 
  3  4  1  0  0  0  0 
  4 20  1  0  0  0  0 
  5 21  1  0  0  0  0 
  5  4  1  0  0  0  0 
  5  7  1  0  0  0  0 
  6  2  1  0  0  0  0 
  7 10  2  0  0  0  0 
  8  6  2  0  0  0  0 
  8  7  1  0  0  0  0 
  9 23  1  0  0  0  0 
  9  6  1  0  0  0  0 
 11  1  1  0  0  0  0 
 13  1  1  0  0  0  0 
 16  2  1  0  0  0  0 
 18  3  1  0  0  0  0 
 19  4  1  0  0  0  0 
 22  5  1  0  0  0  0 
M  END 
>  <HBA> 
3 
 
>  <HBD> 
1 
 
>  <TPSA> 
46.17 
 
>  <cid> 
25424 
 
>  <dipole> 
3.49 
 
>  <excitation_energy_1> 
4.308 
 
>  <excitation_energy_2> 
5.541 
 
>  <excitation_energy_3> 
5.746 
 
>  <excitation_energy_4> 
6.124 
 
>  <homo_energy> 
-6.577 
 
>  <homo_lumo_gap> 
5.823 
 
>  <logP> 
1.23 
 
>  <lumo_energy> 
-0.754 
 
>  <melting_point> 
42.73 
 
>  <molecular_refractivity> 
38.96 
 
>  <oscillator_strength_1> 
0.0012 
 
>  <oscillator_strength_2> 
0.0095 
 
>  <oscillator_strength_3> 
0.0048 
 
>  <oscillator_strength_4> 
0.1342 
 
>  <open_babel_can_smiles> 
CCCCC(=O)/N=C(/O)\C 
 
>  <mulliken_charges> 
23 
1   -0.44111 
2   -0.552376 
3   -0.250399 
4   -0.239221 
5   -0.343783 
6   0.512763 
7   0.523458 
8   -0.450483 
9   -0.557841 
10   -0.477812 
11   0.140559 
12   0.14397 
13   0.141513 
14   0.215513 
15   0.185571 
16   0.166337 
17   0.130371 
18   0.127466 
19   0.136217 
20   0.149518 
21   0.172457 
22   0.15401 
23   0.413301 
 
>  <lowdin_charges> 
23 
1   -0.44479 
2   -0.480651 
3   -0.272084 
4   -0.271947 
5   -0.303436 
6   0.176211 
7   0.173364 
8   -0.200178 
9   -0.33982 
10   -0.273909 
11   0.149454 
12   0.147101 
13   0.147073 
14   0.192426 
15   0.177873 
16   0.166164 
17   0.139267 
18   0.136135 
19   0.144837 
20   0.150098 
21   0.170272 
22   0.158712 
23   0.357828 
 
$$$$ 
 
