PCCDB-ID:  33929 
public computational chemistry database (PCCDB) project, http://pccdb.org 
 
 30 32  0  0  0  0  0  0  0  0999 V2000 
    0.8087    0.0260    0.0497 C   0  0  0  0  0  0  0  0  0  0  0  0 
    4.3251   -3.7947    0.0487 C   0  0  0  0  0  0  0  0  0  0  0  0 
    9.4042   -2.4381    0.0501 C   0  0  0  0  0  0  0  0  0  0  0  0 
    8.7069   -3.6795    0.0499 C   0  0  0  0  0  0  0  0  0  0  0  0 
    8.6987   -1.2669    0.0507 C   0  0  0  0  0  0  0  0  0  0  0  0 
    7.3374   -3.7162    0.0504 C   0  0  0  0  0  0  0  0  0  0  0  0 
    3.0671    1.2075    0.0503 C   0  0  0  0  0  0  0  0  0  0  0  0 
    4.4359    1.1940    0.0520 C   0  0  0  0  0  0  0  0  0  0  0  0 
    3.0036   -1.2056    0.0480 C   0  0  0  0  0  0  0  0  0  0  0  0 
    6.5603   -0.0572    0.0514 C   0  0  0  0  0  0  0  0  0  0  0  0 
    2.3215   -0.0096    0.0487 C   0  0  0  0  0  0  0  0  0  0  0  0 
    5.1308   -2.5129    0.0494 C   0  0  0  0  0  0  0  0  0  0  0  0 
    7.2679   -1.2601    0.0508 C   0  0  0  0  0  0  0  0  0  0  0  0 
    5.1631   -0.0341    0.0512 C   0  0  0  0  0  0  0  0  0  0  0  0 
    6.5464   -2.5182    0.0503 C   0  0  0  0  0  0  0  0  0  0  0  0 
    4.4324   -1.2785    0.0494 C   0  0  0  0  0  0  0  0  0  0  0  0 
    0.4338    1.0543    0.0421 H   0  0  0  0  0  0  0  0  0  0  0  0 
    0.3955   -0.4706    0.9362 H   0  0  0  0  0  0  0  0  0  0  0  0 
    0.3937   -0.4846   -0.8280 H   0  0  0  0  0  0  0  0  0  0  0  0 
    4.9452   -4.6902    0.0504 H   0  0  0  0  0  0  0  0  0  0  0  0 
    3.6765   -3.8546   -0.8342 H   0  0  0  0  0  0  0  0  0  0  0  0 
    3.6732   -3.8535    0.9292 H   0  0  0  0  0  0  0  0  0  0  0  0 
   10.4907   -2.4284    0.0501 H   0  0  0  0  0  0  0  0  0  0  0  0 
    9.2701   -4.6090    0.0494 H   0  0  0  0  0  0  0  0  0  0  0  0 
    9.2141   -0.3091    0.0512 H   0  0  0  0  0  0  0  0  0  0  0  0 
    6.8483   -4.6831    0.0510 H   0  0  0  0  0  0  0  0  0  0  0  0 
    2.5318    2.1540    0.0500 H   0  0  0  0  0  0  0  0  0  0  0  0 
    4.9962    2.1261    0.0543 H   0  0  0  0  0  0  0  0  0  0  0  0 
    2.4304   -2.1274    0.0462 H   0  0  0  0  0  0  0  0  0  0  0  0 
    7.1088    0.8826    0.0519 H   0  0  0  0  0  0  0  0  0  0  0  0 
  1 18  1  0  0  0  0 
  2 12  1  0  0  0  0 
  2 20  1  0  0  0  0 
  2 22  1  0  0  0  0 
  3 23  1  0  0  0  0 
  3  5  1  0  0  0  0 
  4  3  2  0  0  0  0 
  4  6  1  0  0  0  0 
  5 13  2  0  0  0  0 
  5 25  1  0  0  0  0 
  6 26  1  0  0  0  0 
  7  8  2  0  0  0  0 
  8 28  1  0  0  0  0 
  9 11  2  0  0  0  0 
  9 16  1  0  0  0  0 
 10 30  1  0  0  0  0 
 11  1  1  0  0  0  0 
 11  7  1  0  0  0  0 
 12 15  1  0  0  0  0 
 13 10  1  0  0  0  0 
 14 10  2  0  0  0  0 
 14  8  1  0  0  0  0 
 15  6  2  0  0  0  0 
 15 13  1  0  0  0  0 
 16 12  2  0  0  0  0 
 16 14  1  0  0  0  0 
 17  1  1  0  0  0  0 
 19  1  1  0  0  0  0 
 21  2  1  0  0  0  0 
 24  4  1  0  0  0  0 
 27  7  1  0  0  0  0 
 29  9  1  0  0  0  0 
M  END 
>  <HBA> 
0 
 
>  <HBD> 
0 
 
>  <TPSA> 
0.0 
 
>  <cid> 
33929 
 
>  <dipole> 
0.7 
 
>  <excitation_energy_1> 
3.084 
 
>  <excitation_energy_2> 
3.778 
 
>  <excitation_energy_3> 
4.387 
 
>  <excitation_energy_4> 
4.696 
 
>  <homo_energy> 
-5.023 
 
>  <homo_lumo_gap> 
3.456 
 
>  <logP> 
4.61 
 
>  <lumo_energy> 
-1.567 
 
>  <melting_point> 
102.67 
 
>  <molecular_refractivity> 
71.39 
 
>  <oscillator_strength_1> 
0.0692 
 
>  <oscillator_strength_2> 
0.0012 
 
>  <oscillator_strength_3> 
0.0009 
 
>  <oscillator_strength_4> 
0.0359 
 
>  <open_babel_can_smiles> 
Cc1ccc2c(c1)c(C)c1c(c2)cccc1 
 
>  <mulliken_charges> 
30 
1   -0.533209 
2   -0.539083 
3   -0.140955 
4   -0.137108 
5   -0.18519 
6   -0.198455 
7   -0.191076 
8   -0.18291 
9   -0.267713 
10   -0.310814 
11   0.183919 
12   0.036328 
13   0.159436 
14   0.157941 
15   0.074211 
16   0.090636 
17   0.154414 
18   0.164309 
19   0.164069 
20   0.161545 
21   0.164942 
22   0.164935 
23   0.128229 
24   0.126932 
25   0.127817 
26   0.129879 
27   0.122363 
28   0.128353 
29   0.120249 
30   0.126005 
 
>  <lowdin_charges> 
30 
1   -0.443909 
2   -0.447386 
3   -0.15982 
4   -0.161198 
5   -0.154087 
6   -0.16216 
7   -0.168558 
8   -0.152937 
9   -0.175712 
10   -0.163559 
11   0.001414 
12   -0.006346 
13   -0.000814 
14   -0.001853 
15   -0.009927 
16   -0.009455 
17   0.155254 
18   0.162431 
19   0.16239 
20   0.159101 
21   0.161535 
22   0.161543 
23   0.155771 
24   0.157524 
25   0.15692 
26   0.157679 
27   0.155434 
28   0.15776 
29   0.157195 
30   0.15577 
 
$$$$ 
 
