PCCDB-ID:  15362 
public computational chemistry database (PCCDB) project, http://pccdb.org 
 
 24 25  0  0  0  0  0  0  0  0999 V2000 
    1.0489    0.0469    0.0447 C   0  0  0  0  0  0  0  0  0  0  0  0 
    7.2963   -1.2409   -1.1372 C   0  0  0  0  0  0  0  0  0  0  0  0 
    6.5835   -2.4408   -1.0691 C   0  0  0  0  0  0  0  0  0  0  0  0 
    6.6225   -0.0309   -0.9913 C   0  0  0  0  0  0  0  0  0  0  0  0 
    5.2076   -2.4126   -0.8560 C   0  0  0  0  0  0  0  0  0  0  0  0 
    4.5145    1.3256   -0.5977 C   0  0  0  0  0  0  0  0  0  0  0  0 
    3.0085    1.1813   -0.8216 C   0  0  0  0  0  0  0  0  0  0  0  0 
    3.0205   -1.2046   -0.5147 C   0  0  0  0  0  0  0  0  0  0  0  0 
    5.2386    0.0070   -0.7745 C   0  0  0  0  0  0  0  0  0  0  0  0 
    4.5251   -1.1988   -0.7058 C   0  0  0  0  0  0  0  0  0  0  0  0 
    2.5006    0.0678   -0.0244 N   0  0  0  0  0  0  0  0  0  0  0  0 
    0.6855    0.9874    0.4727 H   0  0  0  0  0  0  0  0  0  0  0  0 
    0.7228   -0.7718    0.6963 H   0  0  0  0  0  0  0  0  0  0  0  0 
    0.5646   -0.0927   -0.9429 H   0  0  0  0  0  0  0  0  0  0  0  0 
    8.3700   -1.2497   -1.3056 H   0  0  0  0  0  0  0  0  0  0  0  0 
    7.0977   -3.3918   -1.1802 H   0  0  0  0  0  0  0  0  0  0  0  0 
    7.1742    0.9056   -1.0468 H   0  0  0  0  0  0  0  0  0  0  0  0 
    4.6501   -3.3461   -0.8031 H   0  0  0  0  0  0  0  0  0  0  0  0 
    4.6806    1.6999    0.4218 H   0  0  0  0  0  0  0  0  0  0  0  0 
    4.9251    2.0785   -1.2827 H   0  0  0  0  0  0  0  0  0  0  0  0 
    2.7945    1.0446   -1.9021 H   0  0  0  0  0  0  0  0  0  0  0  0 
    2.4948    2.0968   -0.5071 H   0  0  0  0  0  0  0  0  0  0  0  0 
    2.7430   -1.9892    0.2016 H   0  0  0  0  0  0  0  0  0  0  0  0 
    2.5420   -1.4854   -1.4793 H   0  0  0  0  0  0  0  0  0  0  0  0 
  1 12  1  0  0  0  0 
  1 13  1  0  0  0  0 
  2  3  2  0  0  0  0 
  2  4  1  0  0  0  0 
  3  5  1  0  0  0  0 
  4  9  2  0  0  0  0 
  5 18  1  0  0  0  0 
  5 10  2  0  0  0  0 
  6 19  1  0  0  0  0 
  7  6  1  0  0  0  0 
  7 22  1  0  0  0  0 
  7 11  1  0  0  0  0 
  8 11  1  0  0  0  0 
  8 23  1  0  0  0  0 
  9 10  1  0  0  0  0 
  9  6  1  0  0  0  0 
 10  8  1  0  0  0  0 
 11  1  1  0  0  0  0 
 14  1  1  0  0  0  0 
 15  2  1  0  0  0  0 
 16  3  1  0  0  0  0 
 17  4  1  0  0  0  0 
 20  6  1  0  0  0  0 
 21  7  1  0  0  0  0 
 24  8  1  0  0  0  0 
M  END 
>  <HBA> 
1 
 
>  <HBD> 
0 
 
>  <TPSA> 
3.24 
 
>  <cid> 
15362 
 
>  <dipole> 
0.73 
 
>  <excitation_energy_1> 
4.92 
 
>  <excitation_energy_2> 
5.033 
 
>  <excitation_energy_3> 
5.239 
 
>  <excitation_energy_4> 
5.429 
 
>  <homo_energy> 
-5.739 
 
>  <homo_lumo_gap> 
5.829 
 
>  <logP> 
1.612 
 
>  <lumo_energy> 
0.09 
 
>  <melting_point> 
35.88 
 
>  <molecular_refractivity> 
50.69 
 
>  <oscillator_strength_1> 
0.0016 
 
>  <oscillator_strength_2> 
0.0093 
 
>  <oscillator_strength_3> 
0.027 
 
>  <oscillator_strength_4> 
0.0185 
 
>  <open_babel_can_smiles> 
CN1CCc2c(C1)cccc2 
 
>  <mulliken_charges> 
24 
1   -0.287991 
2   -0.128233 
3   -0.132716 
4   -0.191279 
5   -0.181674 
6   -0.332432 
7   -0.13402 
8   -0.17973 
9   0.126796 
10   0.10157 
11   -0.388068 
12   0.149294 
13   0.1485 
14   0.116949 
15   0.12494 
16   0.125211 
17   0.119585 
18   0.119154 
19   0.161194 
20   0.140191 
21   0.114225 
22   0.136107 
23   0.149538 
24   0.122889 
 
>  <lowdin_charges> 
24 
1   -0.355675 
2   -0.157438 
3   -0.160548 
4   -0.164552 
5   -0.164228 
6   -0.278181 
7   -0.196629 
8   -0.198709 
9   -0.010963 
10   -0.0157 
11   -0.183607 
12   0.150479 
13   0.150932 
14   0.119985 
15   0.153952 
16   0.156013 
17   0.153418 
18   0.153363 
19   0.15775 
20   0.151998 
21   0.115108 
22   0.146694 
23   0.152778 
24   0.123759 
 
$$$$ 
 
