PCCDB-ID:  7908 
public computational chemistry database (PCCDB) project, http://pccdb.org 
 
 22 21  0  0  1  0  0  0  0  0999 V2000 
    1.3574    0.3809    0.3932 C   0  0  0  0  0  0  0  0  0  0  0  0 
    3.5110   -0.1553    1.6004 C   0  0  0  0  0  0  0  0  0  0  0  0 
    5.0780   -1.5647   -2.4140 C   0  0  0  0  0  0  0  0  0  0  0  0 
    3.2975   -0.5644   -0.9143 C   0  0  0  0  0  0  0  0  0  0  0  0 
    2.8880    0.3196    0.2795 C   0  0  0  0  0  0  0  0  0  0  0  0 
    4.7996   -0.6087   -1.2416 C   0  0  2  0  0  0  0  0  0  0  0  0 
    5.2967    0.7608   -1.4616 N   0  0  0  0  0  0  0  0  0  0  0  0 
    1.0468    1.0439    1.2096 H   0  0  0  0  0  0  0  0  0  0  0  0 
    0.9347   -0.6127    0.5954 H   0  0  0  0  0  0  0  0  0  0  0  0 
    0.9003    0.7532   -0.5320 H   0  0  0  0  0  0  0  0  0  0  0  0 
    3.1746    0.4698    2.4363 H   0  0  0  0  0  0  0  0  0  0  0  0 
    4.6045   -0.1055    1.5740 H   0  0  0  0  0  0  0  0  0  0  0  0 
    3.2225   -1.1914    1.8253 H   0  0  0  0  0  0  0  0  0  0  0  0 
    4.7429   -2.5863   -2.1940 H   0  0  0  0  0  0  0  0  0  0  0  0 
    6.1511   -1.6069   -2.6392 H   0  0  0  0  0  0  0  0  0  0  0  0 
    4.5577   -1.2303   -3.3217 H   0  0  0  0  0  0  0  0  0  0  0  0 
    2.7624   -0.2149   -1.8122 H   0  0  0  0  0  0  0  0  0  0  0  0 
    2.9492   -1.5935   -0.7403 H   0  0  0  0  0  0  0  0  0  0  0  0 
    3.2624    1.3315    0.0802 H   0  0  0  0  0  0  0  0  0  0  0  0 
    5.3365   -0.9903   -0.3628 H   0  0  0  0  0  0  0  0  0  0  0  0 
    4.8527    1.1456   -2.2972 H   0  0  0  0  0  0  0  0  0  0  0  0 
    6.2948    0.7306   -1.6692 H   0  0  0  0  0  0  0  0  0  0  0  0 
  1  9  1  0  0  0  0 
  1  8  1  0  0  0  0 
  2 13  1  0  0  0  0 
  2 11  1  0  0  0  0 
  3 14  1  0  0  0  0 
  3  6  1  0  0  0  0 
  4 18  1  0  0  0  0 
  4  5  1  0  0  0  0 
  5  1  1  0  0  0  0 
  5  2  1  0  0  0  0 
  6  4  1  0  0  0  0 
  6 20  1  1  0  0  0 
  7  6  1  0  0  0  0 
 10  1  1  0  0  0  0 
 12  2  1  0  0  0  0 
 15  3  1  0  0  0  0 
 16  3  1  0  0  0  0 
 17  4  1  0  0  0  0 
 19  5  1  0  0  0  0 
 21  7  1  0  0  0  0 
 22  7  1  0  0  0  0 
M  END 
>  <HBA> 
1 
 
>  <HBD> 
1 
 
>  <TPSA> 
26.02 
 
>  <cid> 
7908 
 
>  <dipole> 
1.37 
 
>  <excitation_energy_1> 
5.687 
 
>  <excitation_energy_2> 
6.374 
 
>  <excitation_energy_3> 
6.479 
 
>  <excitation_energy_4> 
6.633 
 
>  <homo_energy> 
-6.256 
 
>  <homo_lumo_gap> 
8.278 
 
>  <logP> 
2.08 
 
>  <lumo_energy> 
2.022 
 
>  <melting_point> 
27.69 
 
>  <molecular_refractivity> 
33.66 
 
>  <oscillator_strength_1> 
0.0386 
 
>  <oscillator_strength_2> 
0.01 
 
>  <oscillator_strength_3> 
0.0063 
 
>  <oscillator_strength_4> 
0.0113 
 
>  <open_babel_can_smiles> 
CC(C[C@H](N)C)C 
 
>  <mulliken_charges> 
22 
1   -0.443333 
2   -0.448937 
3   -0.446676 
4   -0.246794 
5   -0.055661 
6   0.022622 
7   -0.706339 
8   0.137898 
9   0.133758 
10   0.13476 
11   0.136995 
12   0.150988 
13   0.130066 
14   0.140431 
15   0.133122 
16   0.133595 
17   0.114324 
18   0.122848 
19   0.145634 
20   0.132483 
21   0.286079 
22   0.292137 
 
>  <lowdin_charges> 
22 
1   -0.445566 
2   -0.443711 
3   -0.45881 
4   -0.278655 
5   -0.120699 
6   -0.067641 
7   -0.549075 
8   0.147493 
9   0.141877 
10   0.144839 
11   0.147968 
12   0.149511 
13   0.139533 
14   0.148389 
15   0.142514 
16   0.143363 
17   0.134886 
18   0.138532 
19   0.147532 
20   0.138908 
21   0.248398 
22   0.250413 
 
$$$$ 
 
