PCCDB-ID:  12306 
public computational chemistry database (PCCDB) project, http://pccdb.org 
 
 16 15  0  0  0  0  0  0  0  0999 V2000 
    0.2074    0.5568   -0.1847 C   0  0  0  0  0  0  0  0  0  0  0  0 
    1.6148   -0.0392   -0.0744 C   0  0  0  0  0  0  0  0  0  0  0  0 
    2.6676    0.8902   -0.6589 C   0  0  0  0  0  0  0  0  0  0  0  0 
    5.0072    0.9138   -0.9650 C   0  0  0  0  0  0  0  0  0  0  0  0 
    4.9272    2.0565   -1.5229 N   0  0  0  0  0  0  0  0  0  0  0  0 
    6.1031    0.1443   -0.7190 O   0  0  0  0  0  0  0  0  0  0  0  0 
    3.9471    0.2470   -0.5008 O   0  0  0  0  0  0  0  0  0  0  0  0 
   -0.5390   -0.1244    0.2369 H   0  0  0  0  0  0  0  0  0  0  0  0 
   -0.0667    0.7453   -1.2297 H   0  0  0  0  0  0  0  0  0  0  0  0 
    0.1324    1.5082    0.3554 H   0  0  0  0  0  0  0  0  0  0  0  0 
    1.6607   -1.0022   -0.5977 H   0  0  0  0  0  0  0  0  0  0  0  0 
    1.8608   -0.2394    0.9758 H   0  0  0  0  0  0  0  0  0  0  0  0 
    2.6899    1.8585   -0.1464 H   0  0  0  0  0  0  0  0  0  0  0  0 
    2.4959    1.0861   -1.7232 H   0  0  0  0  0  0  0  0  0  0  0  0 
    5.8377    2.4113   -1.8142 H   0  0  0  0  0  0  0  0  0  0  0  0 
    6.8833    0.6136   -1.0511 H   0  0  0  0  0  0  0  0  0  0  0  0 
  1  2  1  0  0  0  0 
  1  8  1  0  0  0  0 
  1 10  1  0  0  0  0 
  2 12  1  0  0  0  0 
  3  7  1  0  0  0  0 
  3 13  1  0  0  0  0 
  3  2  1  0  0  0  0 
  4  6  1  0  0  0  0 
  4  7  1  0  0  0  0 
  5  4  2  0  0  0  0 
  9  1  1  0  0  0  0 
 11  2  1  0  0  0  0 
 14  3  1  0  0  0  0 
 15  5  1  0  0  0  0 
 16  6  1  0  0  0  0 
M  END 
>  <HBA> 
3 
 
>  <HBD> 
1 
 
>  <TPSA> 
52.32 
 
>  <cid> 
12306 
 
>  <dipole> 
0.97 
 
>  <excitation_energy_1> 
5.904 
 
>  <excitation_energy_2> 
6.41 
 
>  <excitation_energy_3> 
7.175 
 
>  <excitation_energy_4> 
7.238 
 
>  <homo_energy> 
-7.023 
 
>  <homo_lumo_gap> 
8.332 
 
>  <logP> 
1.192 
 
>  <lumo_energy> 
1.309 
 
>  <melting_point> 
51.79 
 
>  <molecular_refractivity> 
25.72 
 
>  <oscillator_strength_1> 
0.0052 
 
>  <oscillator_strength_2> 
0.0454 
 
>  <oscillator_strength_3> 
0.0114 
 
>  <oscillator_strength_4> 
0.0008 
 
>  <open_babel_can_smiles> 
CCCOC(=N)O 
 
>  <mulliken_charges> 
16 
1   -0.453079 
2   -0.271857 
3   -0.011352 
4   0.644538 
5   -0.629742 
6   -0.570903 
7   -0.449073 
8   0.152027 
9   0.147956 
10   0.148009 
11   0.150003 
12   0.15016 
13   0.155852 
14   0.156343 
15   0.274298 
16   0.40682 
 
>  <lowdin_charges> 
16 
1   -0.444105 
2   -0.27809 
3   -0.115832 
4   0.185837 
5   -0.471594 
6   -0.366686 
7   -0.178996 
8   0.15663 
9   0.148566 
10   0.149527 
11   0.150156 
12   0.149257 
13   0.150132 
14   0.149219 
15   0.254581 
16   0.361398 
 
$$$$ 
 
