PCCDB-ID:  14216 
public computational chemistry database (PCCDB) project, http://pccdb.org 
 
 30 29  0  0  1  0  0  0  0  0999 V2000 
    4.1404    1.3422    2.1893 C   0  0  0  0  0  0  0  0  0  0  0  0 
    3.6381   -3.9536   -2.2720 C   0  0  0  0  0  0  0  0  0  0  0  0 
    7.2068   -3.8707    1.3523 C   0  0  0  0  0  0  0  0  0  0  0  0 
    3.9214    0.6222    0.8550 C   0  0  0  0  0  0  0  0  0  0  0  0 
    5.0671   -3.4235   -2.1087 C   0  0  0  0  0  0  0  0  0  0  0  0 
    4.7543   -0.6595    0.7202 C   0  0  0  0  0  0  0  0  0  0  0  0 
    4.5419   -1.3792   -0.6179 C   0  0  0  0  0  0  0  0  0  0  0  0 
    5.3292   -2.7047   -0.7592 C   0  0  2  0  0  0  0  0  0  0  0  0 
    6.8283   -2.4883   -0.5591 C   0  0  0  0  0  0  0  0  0  0  0  0 
    7.6190   -2.9667    0.3051 N   0  0  0  0  0  0  0  0  0  0  0  0 
    7.4050   -1.6420   -1.4776 O   0  0  0  0  0  0  0  0  0  0  0  0 
    3.5274    2.2478    2.2597 H   0  0  0  0  0  0  0  0  0  0  0  0 
    5.1893    1.6383    2.3117 H   0  0  0  0  0  0  0  0  0  0  0  0 
    3.8788    0.6957    3.0360 H   0  0  0  0  0  0  0  0  0  0  0  0 
    3.5352   -4.4977   -3.2174 H   0  0  0  0  0  0  0  0  0  0  0  0 
    2.8953   -3.1488   -2.2742 H   0  0  0  0  0  0  0  0  0  0  0  0 
    3.3795   -4.6454   -1.4611 H   0  0  0  0  0  0  0  0  0  0  0  0 
    7.4764   -3.4373    2.3239 H   0  0  0  0  0  0  0  0  0  0  0  0 
    7.7738   -4.8061    1.2604 H   0  0  0  0  0  0  0  0  0  0  0  0 
    6.1370   -4.1299    1.3871 H   0  0  0  0  0  0  0  0  0  0  0  0 
    4.1672    1.3032    0.0276 H   0  0  0  0  0  0  0  0  0  0  0  0 
    2.8555    0.3774    0.7412 H   0  0  0  0  0  0  0  0  0  0  0  0 
    5.2973   -2.7481   -2.9458 H   0  0  0  0  0  0  0  0  0  0  0  0 
    5.7707   -4.2610   -2.1954 H   0  0  0  0  0  0  0  0  0  0  0  0 
    4.5003   -1.3447    1.5423 H   0  0  0  0  0  0  0  0  0  0  0  0 
    5.8184   -0.4170    0.8427 H   0  0  0  0  0  0  0  0  0  0  0  0 
    4.8034   -0.6965   -1.4422 H   0  0  0  0  0  0  0  0  0  0  0  0 
    3.4733   -1.5938   -0.7439 H   0  0  0  0  0  0  0  0  0  0  0  0 
    4.9827   -3.3746    0.0348 H   0  0  0  0  0  0  0  0  0  0  0  0 
    6.7270   -1.3393   -2.1000 H   0  0  0  0  0  0  0  0  0  0  0  0 
  1 12  1  0  0  0  0 
  1 13  1  0  0  0  0 
  1 14  1  0  0  0  0 
  2  5  1  0  0  0  0 
  2 17  1  0  0  0  0 
  3 20  1  0  0  0  0 
  3 18  1  0  0  0  0 
  4  1  1  0  0  0  0 
  5  8  1  0  0  0  0 
  6 26  1  0  0  0  0 
  6  4  1  0  0  0  0 
  6 25  1  0  0  0  0 
  7  6  1  0  0  0  0 
  8  7  1  0  0  0  0 
  8  9  1  0  0  0  0 
  8 29  1  1  0  0  0 
  9 10  2  0  0  0  0 
 10  3  1  0  0  0  0 
 11  9  1  0  0  0  0 
 15  2  1  0  0  0  0 
 16  2  1  0  0  0  0 
 19  3  1  0  0  0  0 
 21  4  1  0  0  0  0 
 22  4  1  0  0  0  0 
 23  5  1  0  0  0  0 
 24  5  1  0  0  0  0 
 27  7  1  0  0  0  0 
 28  7  1  0  0  0  0 
 30 11  1  0  0  0  0 
M  END 
>  <HBA> 
2 
 
>  <HBD> 
1 
 
>  <TPSA> 
29.1 
 
>  <cid> 
14216 
 
>  <dipole> 
3.68 
 
>  <excitation_energy_1> 
5.655 
 
>  <excitation_energy_2> 
5.841 
 
>  <excitation_energy_3> 
6.01 
 
>  <excitation_energy_4> 
6.065 
 
>  <homo_energy> 
-6.327 
 
>  <homo_lumo_gap> 
7.276 
 
>  <logP> 
2.34 
 
>  <lumo_energy> 
0.95 
 
>  <melting_point> 
20.02 
 
>  <molecular_refractivity> 
48.38 
 
>  <oscillator_strength_1> 
0.0 
 
>  <oscillator_strength_2> 
0.0007 
 
>  <oscillator_strength_3> 
0.0013 
 
>  <oscillator_strength_4> 
0.0156 
 
>  <open_babel_can_smiles> 
CCCC[C@H](/C(=N\C)/O)CC 
 
>  <mulliken_charges> 
30 
1   -0.442338 
2   -0.450696 
3   -0.321681 
4   -0.249228 
5   -0.258666 
6   -0.256894 
7   -0.271579 
8   -0.186972 
9   0.506169 
10   -0.419784 
11   -0.597758 
12   0.143066 
13   0.147467 
14   0.142275 
15   0.15172 
16   0.150767 
17   0.14854 
18   0.157765 
19   0.156959 
20   0.121352 
21   0.131624 
22   0.129608 
23   0.121644 
24   0.155455 
25   0.130801 
26   0.156966 
27   0.114836 
28   0.143096 
29   0.140756 
30   0.404729 
 
>  <lowdin_charges> 
30 
1   -0.443585 
2   -0.447566 
3   -0.353904 
4   -0.270718 
5   -0.274358 
6   -0.278221 
7   -0.276028 
8   -0.164534 
9   0.124338 
10   -0.205258 
11   -0.378123 
12   0.15033 
13   0.148206 
14   0.147536 
15   0.155457 
16   0.15022 
17   0.150792 
18   0.152882 
19   0.152851 
20   0.121754 
21   0.139991 
22   0.136328 
23   0.13542 
24   0.154345 
25   0.141159 
26   0.150208 
27   0.131407 
28   0.145616 
29   0.154347 
30   0.349108 
 
$$$$ 
 
