PCCDB-ID:  27970 
public computational chemistry database (PCCDB) project, http://pccdb.org 
 
 11 10  0  0  0  0  0  0  0  0999 V2000 
    0.9335    0.1210    0.0514 C   0  0  0  0  0  0  0  0  0  0  0  0 
    2.9862    1.3553    0.3651 C   0  0  0  0  0  0  0  0  0  0  0  0 
    2.3918    0.0657    0.0275 N   0  0  0  0  0  0  0  0  0  0  0  0 
    2.7674   -0.8335    1.1055 O   0  0  0  0  0  0  0  0  0  0  0  0 
    0.5999    0.8119   -0.7305 H   0  0  0  0  0  0  0  0  0  0  0  0 
    0.5367    0.4575    1.0237 H   0  0  0  0  0  0  0  0  0  0  0  0 
    0.5358   -0.8737   -0.1665 H   0  0  0  0  0  0  0  0  0  0  0  0 
    2.7078    2.0784   -0.4092 H   0  0  0  0  0  0  0  0  0  0  0  0 
    4.0746    1.2539    0.3753 H   0  0  0  0  0  0  0  0  0  0  0  0 
    2.6547    1.7323    1.3470 H   0  0  0  0  0  0  0  0  0  0  0  0 
    3.2570   -1.5245    0.6315 H   0  0  0  0  0  0  0  0  0  0  0  0 
  1  6  1  0  0  0  0 
  2  9  1  0  0  0  0 
  2 10  1  0  0  0  0 
  3  1  1  0  0  0  0 
  3  2  1  0  0  0  0 
  3  4  1  0  0  0  0 
  5  1  1  0  0  0  0 
  7  1  1  0  0  0  0 
  8  2  1  0  0  0  0 
 11  4  1  0  0  0  0 
M  END 
>  <HBA> 
2 
 
>  <HBD> 
1 
 
>  <TPSA> 
23.47 
 
>  <cid> 
27970 
 
>  <dipole> 
0.77 
 
>  <excitation_energy_1> 
5.74 
 
>  <excitation_energy_2> 
6.433 
 
>  <excitation_energy_3> 
6.635 
 
>  <excitation_energy_4> 
6.926 
 
>  <homo_energy> 
-6.136 
 
>  <homo_lumo_gap> 
8.251 
 
>  <logP> 
-0.063 
 
>  <lumo_energy> 
2.114 
 
>  <melting_point> 
32.64 
 
>  <molecular_refractivity> 
15.35 
 
>  <oscillator_strength_1> 
0.0022 
 
>  <oscillator_strength_2> 
0.0465 
 
>  <oscillator_strength_3> 
0.0061 
 
>  <oscillator_strength_4> 
0.0523 
 
>  <open_babel_can_smiles> 
CN(O)C 
 
>  <mulliken_charges> 
11 
1   -0.270107 
2   -0.269995 
3   -0.210679 
4   -0.527329 
5   0.146473 
6   0.135057 
7   0.154616 
8   0.146467 
9   0.154555 
10   0.135015 
11   0.405926 
 
>  <lowdin_charges> 
11 
1   -0.363328 
2   -0.362019 
3   -0.077218 
4   -0.425869 
5   0.15273 
6   0.133106 
7   0.154428 
8   0.152723 
9   0.152673 
10   0.13284 
11   0.349934 
 
$$$$ 
 
