PCCDB-ID:  57449 
public computational chemistry database (PCCDB) project, http://pccdb.org 
 
 24 23  0  0  1  0  0  0  0  0999 V2000 
    3.3583    1.4092    3.5143 C   0  0  0  0  0  0  0  0  0  0  0  0 
    2.5708    1.6299    4.8115 C   0  0  0  0  0  0  0  0  0  0  0  0 
    2.5331    0.7142    2.4252 C   0  0  0  0  0  0  0  0  0  0  0  0 
    3.3816    2.3381    5.8990 C   0  0  0  0  0  0  0  0  0  0  0  0 
    3.3046    0.4735    1.1201 C   0  0  1  0  0  0  0  0  0  0  0  0 
    2.4947   -0.4206    0.1495 C   0  0  0  0  0  0  0  0  0  0  0  0 
    2.5884    2.4738    7.1257 N   0  0  0  0  0  0  0  0  0  0  0  0 
    3.7390    1.6839    0.3921 N   0  0  0  0  0  0  0  0  0  0  0  0 
    1.7995   -1.3377    0.5196 O   0  0  0  0  0  0  0  0  0  0  0  0 
    2.6646   -0.1024   -1.1428 O   0  0  0  0  0  0  0  0  0  0  0  0 
    4.2531    0.8059    3.7305 H   0  0  0  0  0  0  0  0  0  0  0  0 
    3.7258    2.3778    3.1430 H   0  0  0  0  0  0  0  0  0  0  0  0 
    2.2194    0.6697    5.2090 H   0  0  0  0  0  0  0  0  0  0  0  0 
    1.6684    2.2213    4.5924 H   0  0  0  0  0  0  0  0  0  0  0  0 
    1.6348    1.3091    2.1993 H   0  0  0  0  0  0  0  0  0  0  0  0 
    2.1703   -0.2554    2.7814 H   0  0  0  0  0  0  0  0  0  0  0  0 
    3.7607    3.2985    5.4994 H   0  0  0  0  0  0  0  0  0  0  0  0 
    4.2653    1.7337    6.1426 H   0  0  0  0  0  0  0  0  0  0  0  0 
    4.2146   -0.0996    1.3473 H   0  0  0  0  0  0  0  0  0  0  0  0 
    1.8145    3.1173    6.9623 H   0  0  0  0  0  0  0  0  0  0  0  0 
    3.1546    2.8974    7.8590 H   0  0  0  0  0  0  0  0  0  0  0  0 
    3.0511    2.4291    0.4983 H   0  0  0  0  0  0  0  0  0  0  0  0 
    4.6200    2.0409    0.7521 H   0  0  0  0  0  0  0  0  0  0  0  0 
    3.2508    0.6965   -1.1292 H   0  0  0  0  0  0  0  0  0  0  0  0 
  1 11  1  0  0  0  0 
  1  2  1  0  0  0  0 
  2 13  1  0  0  0  0 
  2  4  1  0  0  0  0 
  3 16  1  0  0  0  0 
  3  1  1  0  0  0  0 
  4 18  1  0  0  0  0 
  4  7  1  0  0  0  0 
  5 19  1  1  0  0  0 
  5  3  1  0  0  0  0 
  6  9  2  0  0  0  0 
  6  5  1  0  0  0  0 
  7 21  1  0  0  0  0 
  8 22  1  0  0  0  0 
  8 23  1  0  0  0  0 
  8  5  1  0  0  0  0 
 10 24  1  0  0  0  0 
 10  6  1  0  0  0  0 
 12  1  1  0  0  0  0 
 14  2  1  0  0  0  0 
 15  3  1  0  0  0  0 
 17  4  1  0  0  0  0 
 20  7  1  0  0  0  0 
M  END 
>  <HBA> 
4 
 
>  <HBD> 
3 
 
>  <TPSA> 
89.34 
 
>  <cid> 
57449 
 
>  <dipole> 
6.51 
 
>  <excitation_energy_1> 
5.426 
 
>  <excitation_energy_2> 
5.591 
 
>  <excitation_energy_3> 
5.791 
 
>  <excitation_energy_4> 
6.139 
 
>  <homo_energy> 
-6.433 
 
>  <homo_lumo_gap> 
6.882 
 
>  <logP> 
0.928 
 
>  <lumo_energy> 
0.449 
 
>  <melting_point> 
159.09 
 
>  <molecular_refractivity> 
38.14 
 
>  <oscillator_strength_1> 
0.003 
 
>  <oscillator_strength_2> 
0.0112 
 
>  <oscillator_strength_3> 
0.0052 
 
>  <oscillator_strength_4> 
0.0105 
 
>  <open_babel_can_smiles> 
NCCCC[C@@H](C(=O)O)N 
 
>  <mulliken_charges> 
24 
1   -0.265309 
2   -0.246872 
3   -0.263486 
4   -0.133423 
5   -0.094646 
6   0.611514 
7   -0.714329 
8   -0.769828 
9   -0.465753 
10   -0.583581 
11   0.132834 
12   0.112759 
13   0.156581 
14   0.124652 
15   0.132897 
16   0.179554 
17   0.106889 
18   0.138872 
19   0.173439 
20   0.29199 
21   0.296474 
22   0.320631 
23   0.326375 
24   0.431765 
 
>  <lowdin_charges> 
24 
1   -0.279058 
2   -0.277707 
3   -0.283298 
4   -0.205135 
5   -0.108636 
6   0.17309 
7   -0.558859 
8   -0.548138 
9   -0.257032 
10   -0.35714 
11   0.14026 
12   0.129075 
13   0.153518 
14   0.137113 
15   0.142995 
16   0.169889 
17   0.113282 
18   0.141582 
19   0.16556 
20   0.252014 
21   0.256584 
22   0.267838 
23   0.273124 
24   0.359081 
 
$$$$ 
 
