PCCDB-ID:  29052 
public computational chemistry database (PCCDB) project, http://pccdb.org 
 
 22 23  0  0  0  0  0  0  0  0999 V2000 
    1.0722    0.0313    0.1640 C   0  0  0  0  0  0  0  0  0  0  0  0 
    3.2126   -6.0886    0.3799 C   0  0  0  0  0  0  0  0  0  0  0  0 
    2.5424   -4.9667    0.0845 C   0  0  0  0  0  0  0  0  0  0  0  0 
    4.4209   -1.2285    0.8760 C   0  0  0  0  0  0  0  0  0  0  0  0 
    5.1361   -2.4178    0.9648 C   0  0  0  0  0  0  0  0  0  0  0  0 
    4.5465   -5.9967    1.0737 C   0  0  0  0  0  0  0  0  0  0  0  0 
    2.4198   -2.4586    0.2986 C   0  0  0  0  0  0  0  0  0  0  0  0 
    3.1339   -3.6650    0.3859 C   0  0  0  0  0  0  0  0  0  0  0  0 
    3.0566   -1.2414    0.5491 C   0  0  0  0  0  0  0  0  0  0  0  0 
    4.4955   -3.6354    0.7324 C   0  0  0  0  0  0  0  0  0  0  0  0 
    2.4479   -0.0150    0.4955 O   0  0  0  0  0  0  0  0  0  0  0  0 
    5.2471   -4.7833    0.7694 O   0  0  0  0  0  0  0  0  0  0  0  0 
    0.7925    1.0865    0.1856 H   0  0  0  0  0  0  0  0  0  0  0  0 
    0.4601   -0.5196    0.8915 H   0  0  0  0  0  0  0  0  0  0  0  0 
    0.8823   -0.3717   -0.8405 H   0  0  0  0  0  0  0  0  0  0  0  0 
    2.8103   -7.0752    0.1660 H   0  0  0  0  0  0  0  0  0  0  0  0 
    1.5657   -4.9974   -0.3932 H   0  0  0  0  0  0  0  0  0  0  0  0 
    4.9006   -0.2726    1.0609 H   0  0  0  0  0  0  0  0  0  0  0  0 
    6.1928   -2.4179    1.2132 H   0  0  0  0  0  0  0  0  0  0  0  0 
    5.2194   -6.8010    0.7616 H   0  0  0  0  0  0  0  0  0  0  0  0 
    4.4219   -6.0773    2.1693 H   0  0  0  0  0  0  0  0  0  0  0  0 
    1.3696   -2.4971    0.0290 H   0  0  0  0  0  0  0  0  0  0  0  0 
  1 13  1  0  0  0  0 
  1 11  1  0  0  0  0 
  1 14  1  0  0  0  0 
  2  6  1  0  0  0  0 
  3  2  2  0  0  0  0 
  3  8  1  0  0  0  0 
  4  5  1  0  0  0  0 
  4 18  1  0  0  0  0 
  5 19  1  0  0  0  0 
  6 21  1  0  0  0  0 
  7  8  2  0  0  0  0 
  7  9  1  0  0  0  0 
  8 10  1  0  0  0  0 
  9  4  2  0  0  0  0 
 10 12  1  0  0  0  0 
 10  5  2  0  0  0  0 
 11  9  1  0  0  0  0 
 12  6  1  0  0  0  0 
 15  1  1  0  0  0  0 
 16  2  1  0  0  0  0 
 17  3  1  0  0  0  0 
 20  6  1  0  0  0  0 
 22  7  1  0  0  0  0 
M  END 
>  <HBA> 
2 
 
>  <HBD> 
0 
 
>  <TPSA> 
18.46 
 
>  <cid> 
29052 
 
>  <dipole> 
2.27 
 
>  <excitation_energy_1> 
3.74 
 
>  <excitation_energy_2> 
4.712 
 
>  <excitation_energy_3> 
4.838 
 
>  <excitation_energy_4> 
5.15 
 
>  <homo_energy> 
-5.167 
 
>  <homo_lumo_gap> 
4.387 
 
>  <logP> 
2.101 
 
>  <lumo_energy> 
-0.781 
 
>  <melting_point> 
61.63 
 
>  <molecular_refractivity> 
47.4 
 
>  <oscillator_strength_1> 
0.0757 
 
>  <oscillator_strength_2> 
0.01 
 
>  <oscillator_strength_3> 
0.0074 
 
>  <oscillator_strength_4> 
0.0577 
 
>  <open_babel_can_smiles> 
COc1ccc2c(c1)C=CCO2 
 
>  <mulliken_charges> 
22 
1   -0.210446 
2   -0.172934 
3   -0.11633 
4   -0.177442 
5   -0.179579 
6   -0.059125 
7   -0.28195 
8   0.117369 
9   0.378531 
10   0.306117 
11   -0.51408 
12   -0.532871 
13   0.167874 
14   0.148358 
15   0.148424 
16   0.138123 
17   0.13105 
18   0.138992 
19   0.139241 
20   0.15726 
21   0.144723 
22   0.128695 
 
>  <lowdin_charges> 
22 
1   -0.276149 
2   -0.185869 
3   -0.151964 
4   -0.17179 
5   -0.170469 
6   -0.116132 
7   -0.208693 
8   -0.034271 
9   0.087412 
10   0.086397 
11   -0.204818 
12   -0.210315 
13   0.160419 
14   0.144304 
15   0.142031 
16   0.161858 
17   0.158867 
18   0.168116 
19   0.166458 
20   0.158473 
21   0.136654 
22   0.159479 
 
$$$$ 
 
