PCCDB-ID:  10413 
public computational chemistry database (PCCDB) project, http://pccdb.org 
 
 15 14  0  0  0  0  0  0  0  0999 V2000 
    1.5809   -0.2160   -0.0161 C   0  0  0  0  0  0  0  0  0  0  0  0 
    1.5286   -0.9548    1.3426 C   0  0  0  0  0  0  0  0  0  0  0  0 
    2.7678    0.7213   -0.2029 C   0  0  0  0  0  0  0  0  0  0  0  0 
    2.1865   -2.3392    1.4155 C   0  0  0  0  0  0  0  0  0  0  0  0 
    3.9730   -0.0579   -0.2455 O   0  0  0  0  0  0  0  0  0  0  0  0 
    1.6395   -3.2774    1.9483 O   0  0  0  0  0  0  0  0  0  0  0  0 
    3.4160   -2.4643    0.8845 O   0  0  0  0  0  0  0  0  0  0  0  0 
    0.6769    0.3974   -0.1137 H   0  0  0  0  0  0  0  0  0  0  0  0 
    1.5556   -0.9322   -0.8468 H   0  0  0  0  0  0  0  0  0  0  0  0 
    0.4910   -1.1161    1.6420 H   0  0  0  0  0  0  0  0  0  0  0  0 
    1.9838   -0.3255    2.1220 H   0  0  0  0  0  0  0  0  0  0  0  0 
    2.8091    1.4417    0.6272 H   0  0  0  0  0  0  0  0  0  0  0  0 
    2.6606    1.2853   -1.1398 H   0  0  0  0  0  0  0  0  0  0  0  0 
    4.7418    0.5177   -0.1197 H   0  0  0  0  0  0  0  0  0  0  0  0 
    3.7258   -1.6107    0.5019 H   0  0  0  0  0  0  0  0  0  0  0  0 
  1  2  1  0  0  0  0 
  2  4  1  0  0  0  0 
  2 10  1  0  0  0  0 
  2 11  1  0  0  0  0 
  3  1  1  0  0  0  0 
  3 12  1  0  0  0  0 
  4  6  2  0  0  0  0 
  5  3  1  0  0  0  0 
  5 14  1  0  0  0  0 
  7  4  1  0  0  0  0 
  8  1  1  0  0  0  0 
  9  1  1  0  0  0  0 
 13  3  1  0  0  0  0 
 15  7  1  0  0  0  0 
M  END 
>  <HBA> 
3 
 
>  <HBD> 
2 
 
>  <TPSA> 
57.53 
 
>  <cid> 
10413 
 
>  <dipole> 
6.81 
 
>  <excitation_energy_1> 
5.569 
 
>  <excitation_energy_2> 
5.918 
 
>  <excitation_energy_3> 
6.653 
 
>  <excitation_energy_4> 
6.886 
 
>  <homo_energy> 
-6.702 
 
>  <homo_lumo_gap> 
7.486 
 
>  <logP> 
-0.157 
 
>  <lumo_energy> 
0.784 
 
>  <melting_point> 
70.54 
 
>  <molecular_refractivity> 
24.28 
 
>  <oscillator_strength_1> 
0.0011 
 
>  <oscillator_strength_2> 
0.0013 
 
>  <oscillator_strength_3> 
0.0015 
 
>  <oscillator_strength_4> 
0.0039 
 
>  <open_babel_can_smiles> 
OCCCC(=O)O 
 
>  <mulliken_charges> 
15 
1   -0.301185 
2   -0.37681 
3   -0.036933 
4   0.57766 
5   -0.632753 
6   -0.455283 
7   -0.596871 
8   0.158016 
9   0.173789 
10   0.180751 
11   0.162288 
12   0.137665 
13   0.146261 
14   0.414997 
15   0.448408 
 
>  <lowdin_charges> 
15 
1   -0.290307 
2   -0.320983 
3   -0.132702 
4   0.188015 
5   -0.464853 
6   -0.261808 
7   -0.375017 
8   0.162598 
9   0.162262 
10   0.17394 
11   0.16365 
12   0.13585 
13   0.142397 
14   0.360288 
15   0.356671 
 
$$$$ 
 
