PCCDB-ID:  7012 
public computational chemistry database (PCCDB) project, http://pccdb.org 
 
 24 24  0  0  1  0  0  0  0  0999 V2000 
    1.0988   -0.4526   -0.0075 C   0  0  0  0  0  0  0  0  0  0  0  0 
    2.6225   -0.3128    0.0263 C   0  0  0  0  0  0  0  0  0  0  0  0 
    2.1751    0.0462    5.1522 C   0  0  0  0  0  0  0  0  0  0  0  0 
    1.6120    1.1386    4.4937 C   0  0  0  0  0  0  0  0  0  0  0  0 
    3.0460   -0.8021    4.4627 C   0  0  0  0  0  0  0  0  0  0  0  0 
    1.9167    1.3794    3.1513 C   0  0  0  0  0  0  0  0  0  0  0  0 
    3.3482   -0.5601    3.1241 C   0  0  0  0  0  0  0  0  0  0  0  0 
    2.7853    0.5349    2.4460 C   0  0  0  0  0  0  0  0  0  0  0  0 
    3.1137    0.7947    0.9812 C   0  0  1  0  0  0  0  0  0  0  0  0 
    4.6159    1.0736    0.7606 C   0  0  0  0  0  0  0  0  0  0  0  0 
    5.2312    0.7311   -0.2184 O   0  0  0  0  0  0  0  0  0  0  0  0 
    5.2265    1.7988    1.7313 O   0  0  0  0  0  0  0  0  0  0  0  0 
    0.7999   -1.2364   -0.7119 H   0  0  0  0  0  0  0  0  0  0  0  0 
    0.6209    0.4812   -0.3300 H   0  0  0  0  0  0  0  0  0  0  0  0 
    0.6918   -0.7130    0.9758 H   0  0  0  0  0  0  0  0  0  0  0  0 
    3.0085   -0.0847   -0.9716 H   0  0  0  0  0  0  0  0  0  0  0  0 
    3.0809   -1.2659    0.3184 H   0  0  0  0  0  0  0  0  0  0  0  0 
    1.9410   -0.1436    6.1960 H   0  0  0  0  0  0  0  0  0  0  0  0 
    0.9333    1.8043    5.0200 H   0  0  0  0  0  0  0  0  0  0  0  0 
    3.4924   -1.6531    4.9700 H   0  0  0  0  0  0  0  0  0  0  0  0 
    1.4672    2.2288    2.6415 H   0  0  0  0  0  0  0  0  0  0  0  0 
    4.0337   -1.2221    2.6001 H   0  0  0  0  0  0  0  0  0  0  0  0 
    2.6116    1.7317    0.6924 H   0  0  0  0  0  0  0  0  0  0  0  0 
    4.6106    1.9219    2.4759 H   0  0  0  0  0  0  0  0  0  0  0  0 
  1  2  1  0  0  0  0 
  1 15  1  0  0  0  0 
  2 17  1  0  0  0  0 
  2  9  1  0  0  0  0 
  3 18  1  0  0  0  0 
  4 19  1  0  0  0  0 
  4  3  1  0  0  0  0 
  5 20  1  0  0  0  0 
  5  3  2  0  0  0  0 
  6  4  2  0  0  0  0 
  7  5  1  0  0  0  0 
  8  7  2  0  0  0  0 
  8  6  1  0  0  0  0 
  9 23  1  6  0  0  0 
  9  8  1  0  0  0  0 
 10  9  1  0  0  0  0 
 10 12  1  0  0  0  0 
 11 10  2  0  0  0  0 
 12 24  1  0  0  0  0 
 13  1  1  0  0  0  0 
 14  1  1  0  0  0  0 
 16  2  1  0  0  0  0 
 21  6  1  0  0  0  0 
 22  7  1  0  0  0  0 
M  END 
>  <HBA> 
2 
 
>  <HBD> 
1 
 
>  <TPSA> 
37.3 
 
>  <cid> 
7012 
 
>  <dipole> 
4.57 
 
>  <excitation_energy_1> 
5.239 
 
>  <excitation_energy_2> 
5.51 
 
>  <excitation_energy_3> 
5.712 
 
>  <excitation_energy_4> 
6.093 
 
>  <homo_energy> 
-6.865 
 
>  <homo_lumo_gap> 
6.259 
 
>  <logP> 
2.265 
 
>  <lumo_energy> 
-0.607 
 
>  <melting_point> 
82.32 
 
>  <molecular_refractivity> 
47.6 
 
>  <oscillator_strength_1> 
0.0004 
 
>  <oscillator_strength_2> 
0.0104 
 
>  <oscillator_strength_3> 
0.065 
 
>  <oscillator_strength_4> 
0.0181 
 
>  <open_babel_can_smiles> 
CC[C@@H](c1ccccc1)C(=O)O 
 
>  <mulliken_charges> 
24 
1   -0.454123 
2   -0.245248 
3   -0.128182 
4   -0.123789 
5   -0.128961 
6   -0.193614 
7   -0.168468 
8   0.099547 
9   -0.281533 
10   0.605195 
11   -0.447794 
12   -0.571504 
13   0.150786 
14   0.14013 
15   0.153799 
16   0.169568 
17   0.144988 
18   0.138733 
19   0.13879 
20   0.141021 
21   0.135496 
22   0.148093 
23   0.164164 
24   0.412906 
 
>  <lowdin_charges> 
24 
1   -0.448714 
2   -0.26648 
3   -0.15122 
4   -0.153472 
5   -0.149352 
6   -0.175027 
7   -0.162891 
8   -0.026677 
9   -0.166342 
10   0.190389 
11   -0.239583 
12   -0.355277 
13   0.15583 
14   0.146193 
15   0.152208 
16   0.162848 
17   0.148279 
18   0.160886 
19   0.163535 
20   0.163909 
21   0.159552 
22   0.165954 
23   0.164977 
24   0.360474 
 
$$$$ 
 
