PCCDB-ID:  27075 
public computational chemistry database (PCCDB) project, http://pccdb.org 
 
 25 26  0  0  0  0  0  0  0  0999 V2000 
    1.9397    1.7375   -0.0700 C   0  0  0  0  0  0  0  0  0  0  0  0 
    4.7460    1.1619   -1.6837 C   0  0  0  0  0  0  0  0  0  0  0  0 
    1.8583   -4.2413   -0.5640 C   0  0  0  0  0  0  0  0  0  0  0  0 
    0.9706   -4.7901    0.3989 C   0  0  0  0  0  0  0  0  0  0  0  0 
    1.7907    0.2410   -0.2763 C   0  0  0  0  0  0  0  0  0  0  0  0 
    4.1528   -0.1470   -1.2801 C   0  0  0  0  0  0  0  0  0  0  0  0 
    2.2039   -2.9923   -0.1069 C   0  0  0  0  0  0  0  0  0  0  0  0 
    0.8594   -3.8313    1.3679 C   0  0  0  0  0  0  0  0  0  0  0  0 
    2.9865   -0.5481   -0.6697 C   0  0  0  0  0  0  0  0  0  0  0  0 
    3.1092   -1.9825   -0.6422 C   0  0  0  0  0  0  0  0  0  0  0  0 
    4.2386   -2.3916   -1.1809 N   0  0  0  0  0  0  0  0  0  0  0  0 
    0.1157   -3.8279    2.5885 N   0  0  0  0  0  0  0  0  0  0  0  0 
    0.7126   -0.3120   -0.1390 O   0  0  0  0  0  0  0  0  0  0  0  0 
   -0.5674   -4.8349    2.8017 O   0  0  0  0  0  0  0  0  0  0  0  0 
    0.2126   -2.8481    3.3244 O   0  0  0  0  0  0  0  0  0  0  0  0 
    1.6001   -2.7386    1.0858 O   0  0  0  0  0  0  0  0  0  0  0  0 
    4.8876   -1.2293   -1.5984 O   0  0  0  0  0  0  0  0  0  0  0  0 
    2.1680    2.2432   -1.0161 H   0  0  0  0  0  0  0  0  0  0  0  0 
    2.7519    1.9635    0.6307 H   0  0  0  0  0  0  0  0  0  0  0  0 
    0.9987    2.1290    0.3205 H   0  0  0  0  0  0  0  0  0  0  0  0 
    4.8249    1.8434   -0.8314 H   0  0  0  0  0  0  0  0  0  0  0  0 
    4.1388    1.6537   -2.4517 H   0  0  0  0  0  0  0  0  0  0  0  0 
    5.7457    0.9949   -2.0917 H   0  0  0  0  0  0  0  0  0  0  0  0 
    2.1992   -4.6935   -1.4838 H   0  0  0  0  0  0  0  0  0  0  0  0 
    0.4768   -5.7495    0.3949 H   0  0  0  0  0  0  0  0  0  0  0  0 
  1 20  1  0  0  0  0 
  1 19  1  0  0  0  0 
  2  6  1  0  0  0  0 
  2 21  1  0  0  0  0 
  3  7  2  0  0  0  0 
  3  4  1  0  0  0  0 
  4  8  2  0  0  0  0 
  5 13  2  0  0  0  0 
  5  1  1  0  0  0  0 
  6  9  2  0  0  0  0 
  7 16  1  0  0  0  0 
  8 12  1  0  0  0  0 
  9 10  1  0  0  0  0 
  9  5  1  0  0  0  0 
 10  7  1  0  0  0  0 
 11 10  2  0  0  0  0 
 12 14  2  0  0  0  0 
 12 15  2  0  0  0  0 
 16  8  1  0  0  0  0 
 17  6  1  0  0  0  0 
 17 11  1  0  0  0  0 
 18  1  1  0  0  0  0 
 22  2  1  0  0  0  0 
 23  2  1  0  0  0  0 
 24  3  1  0  0  0  0 
 25  4  1  0  0  0  0 
M  END 
>  <HBA> 
4 
 
>  <HBD> 
0 
 
>  <TPSA> 
102.06 
 
>  <cid> 
27075 
 
>  <dipole> 
6.75 
 
>  <excitation_energy_1> 
3.733 
 
>  <excitation_energy_2> 
3.827 
 
>  <excitation_energy_3> 
4.035 
 
>  <excitation_energy_4> 
4.154 
 
>  <homo_energy> 
-6.936 
 
>  <homo_lumo_gap> 
4.416 
 
>  <logP> 
2.877 
 
>  <lumo_energy> 
-2.52 
 
>  <melting_point> 
135.09 
 
>  <molecular_refractivity> 
58.19 
 
>  <oscillator_strength_1> 
0.001 
 
>  <oscillator_strength_2> 
0.0675 
 
>  <oscillator_strength_3> 
0.2331 
 
>  <oscillator_strength_4> 
0.076 
 
>  <open_babel_can_smiles> 
CC(=O)c1c(C)onc1c1ccc(o1)N(=O)=O 
 
>  <mulliken_charges> 
25 
1   -0.544819 
2   -0.546146 
3   -0.180124 
4   -0.152444 
5   0.41377 
6   0.388318 
7   0.361942 
8   0.548805 
9   -0.073892 
10   0.20841 
11   -0.219185 
12   0.327252 
13   -0.441285 
14   -0.402967 
15   -0.385996 
16   -0.433948 
17   -0.357144 
18   0.170595 
19   0.173128 
20   0.194143 
21   0.191904 
22   0.192898 
23   0.19987 
24   0.176472 
25   0.190442 
 
>  <lowdin_charges> 
25 
1   -0.472704 
2   -0.447165 
3   -0.175479 
4   -0.152264 
5   0.166453 
6   0.115022 
7   0.099736 
8   0.073603 
9   -0.117686 
10   0.024786 
11   -0.06252 
12   0.306215 
13   -0.226741 
14   -0.254576 
15   -0.233017 
16   -0.045065 
17   -0.053642 
18   0.170559 
19   0.170412 
20   0.182151 
21   0.180775 
22   0.181425 
23   0.185542 
24   0.188099 
25   0.196082 
 
$$$$ 
 
