PCCDB-ID:  23206 
public computational chemistry database (PCCDB) project, http://pccdb.org 
 
 27 27  0  0  0  0  0  0  0  0999 V2000 
    3.3498    3.7499    0.2454 C   0  0  0  0  0  0  0  0  0  0  0  0 
   -2.0907   -1.7208    2.6811 C   0  0  0  0  0  0  0  0  0  0  0  0 
   -0.0978   -0.1055   -1.6756 C   0  0  0  0  0  0  0  0  0  0  0  0 
   -1.0466   -1.0756   -1.3629 C   0  0  0  0  0  0  0  0  0  0  0  0 
    0.4662    0.6561   -0.6553 C   0  0  0  0  0  0  0  0  0  0  0  0 
   -1.4164   -1.2974   -0.0361 C   0  0  0  0  0  0  0  0  0  0  0  0 
    0.1108    0.4700    0.6875 C   0  0  0  0  0  0  0  0  0  0  0  0 
   -0.8341   -0.5416    0.9840 C   0  0  0  0  0  0  0  0  0  0  0  0 
    0.7640    1.3116    1.7466 C   0  0  0  0  0  0  0  0  0  0  0  0 
    1.0543    3.3368    0.5408 C   0  0  0  0  0  0  0  0  0  0  0  0 
    1.9564    3.9651   -0.1067 N   0  0  0  0  0  0  0  0  0  0  0  0 
    1.2291    2.4938    1.6221 N   0  0  0  0  0  0  0  0  0  0  0  0 
    0.9618    0.7339    2.9502 O   0  0  0  0  0  0  0  0  0  0  0  0 
   -0.2581    3.5725    0.2409 O   0  0  0  0  0  0  0  0  0  0  0  0 
   -1.1315   -0.7334    2.3129 O   0  0  0  0  0  0  0  0  0  0  0  0 
    3.8281    3.0662   -0.4708 H   0  0  0  0  0  0  0  0  0  0  0  0 
    3.4866    3.3348    1.2531 H   0  0  0  0  0  0  0  0  0  0  0  0 
    3.8849    4.7043    0.1776 H   0  0  0  0  0  0  0  0  0  0  0  0 
   -1.7722   -2.7223    2.3685 H   0  0  0  0  0  0  0  0  0  0  0  0 
   -3.0712   -1.4920    2.2489 H   0  0  0  0  0  0  0  0  0  0  0  0 
   -2.1534   -1.6786    3.7692 H   0  0  0  0  0  0  0  0  0  0  0  0 
    0.2028    0.0610   -2.7052 H   0  0  0  0  0  0  0  0  0  0  0  0 
   -1.5021   -1.6727   -2.1480 H   0  0  0  0  0  0  0  0  0  0  0  0 
    1.2059    1.4095   -0.9012 H   0  0  0  0  0  0  0  0  0  0  0  0 
   -2.1497   -2.0607    0.1950 H   0  0  0  0  0  0  0  0  0  0  0  0 
    0.4243   -0.0782    3.0016 H   0  0  0  0  0  0  0  0  0  0  0  0 
   -0.2253    4.2475   -0.4619 H   0  0  0  0  0  0  0  0  0  0  0  0 
  1 17  1  0  0  0  0 
  2 21  1  0  0  0  0 
  3  4  2  0  0  0  0 
  3  5  1  0  0  0  0 
  4  6  1  0  0  0  0 
  5  7  2  0  0  0  0 
  6 25  1  0  0  0  0 
  6  8  2  0  0  0  0 
  7  8  1  0  0  0  0 
  7  9  1  0  0  0  0 
  8 15  1  0  0  0  0 
  9 13  1  0  0  0  0 
 10 12  1  0  0  0  0 
 11  1  1  0  0  0  0 
 11 10  2  0  0  0  0 
 12  9  2  0  0  0  0 
 13 26  1  0  0  0  0 
 14 10  1  0  0  0  0 
 15  2  1  0  0  0  0 
 16  1  1  0  0  0  0 
 18  1  1  0  0  0  0 
 19  2  1  0  0  0  0 
 20  2  1  0  0  0  0 
 22  3  1  0  0  0  0 
 23  4  1  0  0  0  0 
 24  5  1  0  0  0  0 
 27 14  1  0  0  0  0 
M  END 
>  <HBA> 
5 
 
>  <HBD> 
2 
 
>  <TPSA> 
67.43 
 
>  <cid> 
23206 
 
>  <dipole> 
6.74 
 
>  <excitation_energy_1> 
3.843 
 
>  <excitation_energy_2> 
4.456 
 
>  <excitation_energy_3> 
4.604 
 
>  <excitation_energy_4> 
5.003 
 
>  <homo_energy> 
-5.924 
 
>  <homo_lumo_gap> 
4.615 
 
>  <logP> 
1.546 
 
>  <lumo_energy> 
-1.309 
 
>  <melting_point> 
129.74 
 
>  <molecular_refractivity> 
54.13 
 
>  <oscillator_strength_1> 
0.0249 
 
>  <oscillator_strength_2> 
0.0267 
 
>  <oscillator_strength_3> 
0.0781 
 
>  <oscillator_strength_4> 
0.0155 
 
>  <open_babel_can_smiles> 
C/N=C(\N=C(/c1ccccc1OC)\O)/O 
 
>  <mulliken_charges> 
27 
1   -0.322911 
2   -0.222487 
3   -0.135944 
4   -0.129275 
5   -0.174876 
6   -0.188162 
7   0.049587 
8   0.337019 
9   0.452711 
10   0.587883 
11   -0.470599 
12   -0.454991 
13   -0.58791 
14   -0.592974 
15   -0.552195 
16   0.136829 
17   0.158387 
18   0.146668 
19   0.164663 
20   0.170602 
21   0.184111 
22   0.142263 
23   0.142594 
24   0.177118 
25   0.142177 
26   0.43519 
27   0.404523 
 
>  <lowdin_charges> 
27 
1   -0.359179 
2   -0.273034 
3   -0.16765 
4   -0.132321 
5   -0.123328 
6   -0.206723 
7   -0.066817 
8   0.105269 
9   0.171127 
10   0.147928 
11   -0.275947 
12   -0.183392 
13   -0.350116 
14   -0.384529 
15   -0.211383 
16   0.141917 
17   0.145606 
18   0.14741 
19   0.151767 
20   0.156196 
21   0.168784 
22   0.164508 
23   0.16575 
24   0.182796 
25   0.168246 
26   0.359049 
27   0.358066 
 
$$$$ 
 
