PCCDB-ID:  10688 
public computational chemistry database (PCCDB) project, http://pccdb.org 
 
 18 18  0  0  0  0  0  0  0  0999 V2000 
    0.8134   -0.0736    0.0660 C   0  0  0  0  0  0  0  0  0  0  0  0 
    2.4002    2.6134   -0.1637 C   0  0  0  0  0  0  0  0  0  0  0  0 
    4.5205   -1.2387   -0.1450 C   0  0  0  0  0  0  0  0  0  0  0  0 
    5.1996   -0.0887   -0.2432 C   0  0  0  0  0  0  0  0  0  0  0  0 
    2.3068    0.0659   -0.0495 C   0  0  0  0  0  0  0  0  0  0  0  0 
    2.9955    1.2320   -0.1490 C   0  0  0  0  0  0  0  0  0  0  0  0 
    3.0410   -1.2406   -0.0421 C   0  0  0  0  0  0  0  0  0  0  0  0 
    4.4905    1.2138   -0.2528 C   0  0  0  0  0  0  0  0  0  0  0  0 
    2.4331   -2.3025    0.0482 O   0  0  0  0  0  0  0  0  0  0  0  0 
    5.1269    2.2588   -0.3440 O   0  0  0  0  0  0  0  0  0  0  0  0 
    0.2939    0.8838    0.0266 H   0  0  0  0  0  0  0  0  0  0  0  0 
    0.5519   -0.5753    1.0048 H   0  0  0  0  0  0  0  0  0  0  0  0 
    0.4307   -0.7157   -0.7348 H   0  0  0  0  0  0  0  0  0  0  0  0 
    1.3110    2.6054   -0.1225 H   0  0  0  0  0  0  0  0  0  0  0  0 
    2.7155    3.1515   -1.0643 H   0  0  0  0  0  0  0  0  0  0  0  0 
    2.7782    3.1973    0.6834 H   0  0  0  0  0  0  0  0  0  0  0  0 
    4.9967   -2.2150   -0.1354 H   0  0  0  0  0  0  0  0  0  0  0  0 
    6.2819   -0.0387   -0.3215 H   0  0  0  0  0  0  0  0  0  0  0  0 
  1 12  1  0  0  0  0 
  2  6  1  0  0  0  0 
  2 14  1  0  0  0  0 
  2 16  1  0  0  0  0 
  3 17  1  0  0  0  0 
  3  7  1  0  0  0  0 
  4  3  2  0  0  0  0 
  5  7  1  0  0  0  0 
  5  1  1  0  0  0  0 
  6  5  2  0  0  0  0 
  7  9  2  0  0  0  0 
  8  4  1  0  0  0  0 
  8  6  1  0  0  0  0 
 10  8  2  0  0  0  0 
 11  1  1  0  0  0  0 
 13  1  1  0  0  0  0 
 15  2  1  0  0  0  0 
 18  4  1  0  0  0  0 
M  END 
>  <HBA> 
2 
 
>  <HBD> 
0 
 
>  <TPSA> 
34.14 
 
>  <cid> 
10688 
 
>  <dipole> 
0.68 
 
>  <excitation_energy_1> 
2.539 
 
>  <excitation_energy_2> 
2.83 
 
>  <excitation_energy_3> 
3.328 
 
>  <excitation_energy_4> 
4.814 
 
>  <homo_energy> 
-7.105 
 
>  <homo_lumo_gap> 
3.853 
 
>  <logP> 
1.031 
 
>  <lumo_energy> 
-3.252 
 
>  <melting_point> 
63.89 
 
>  <molecular_refractivity> 
37.91 
 
>  <oscillator_strength_1> 
0.0 
 
>  <oscillator_strength_2> 
0.0 
 
>  <oscillator_strength_3> 
0.017 
 
>  <oscillator_strength_4> 
0.2634 
 
>  <open_babel_can_smiles> 
CC1=C(C)C(=O)C=CC1=O 
 
>  <mulliken_charges> 
18 
1   -0.514415 
2   -0.514433 
3   -0.157619 
4   -0.157681 
5   0.042014 
6   0.041936 
7   0.403444 
8   0.40352 
9   -0.461005 
10   -0.460966 
11   0.158187 
12   0.181028 
13   0.18193 
14   0.158181 
15   0.182018 
16   0.180947 
17   0.166454 
18   0.16646 
 
>  <lowdin_charges> 
18 
1   -0.440992 
2   -0.439377 
3   -0.151114 
4   -0.148783 
5   -0.023839 
6   -0.023989 
7   0.146143 
8   0.146116 
9   -0.220249 
10   -0.220419 
11   0.159212 
12   0.17508 
13   0.17635 
14   0.157379 
15   0.175864 
16   0.175689 
17   0.179317 
18   0.177612 
 
$$$$ 
 
