PCCDB-ID:  29391 
public computational chemistry database (PCCDB) project, http://pccdb.org 
 
 30 29  0  0  0  0  0  0  0  0999 V2000 
    3.5057   -1.9013   -1.3793 C   0  0  0  0  0  0  0  0  0  0  0  0 
    1.0709    0.7308   -3.7152 C   0  0  0  0  0  0  0  0  0  0  0  0 
    7.3519    1.8055   -1.7344 C   0  0  0  0  0  0  0  0  0  0  0  0 
    2.5708   -0.6922   -1.3146 C   0  0  0  0  0  0  0  0  0  0  0  0 
    1.8974    1.2999   -2.5611 C   0  0  0  0  0  0  0  0  0  0  0  0 
    5.0449    1.6954   -2.7064 C   0  0  0  0  0  0  0  0  0  0  0  0 
    4.1238    1.1740   -1.5914 C   0  0  0  0  0  0  0  0  0  0  0  0 
    6.0357    3.8579   -2.0935 C   0  0  0  0  0  0  0  0  0  0  0  0 
    6.1520    2.5149   -2.1872 N   0  0  0  0  0  0  0  0  0  0  0  0 
    3.0096    0.4196   -2.1668 N   0  0  0  0  0  0  0  0  0  0  0  0 
    4.6950    4.7587   -2.5299 S   0  0  0  0  0  0  0  0  0  0  0  0 
    7.5179    4.6535   -1.4324 S   0  0  0  0  0  0  0  0  0  0  0  0 
    3.1182   -2.7169   -0.7579 H   0  0  0  0  0  0  0  0  0  0  0  0 
    4.5134   -1.6661   -1.0174 H   0  0  0  0  0  0  0  0  0  0  0  0 
    3.5935   -2.2587   -2.4105 H   0  0  0  0  0  0  0  0  0  0  0  0 
    0.2724    1.4293   -3.9908 H   0  0  0  0  0  0  0  0  0  0  0  0 
    0.5987   -0.2235   -3.4560 H   0  0  0  0  0  0  0  0  0  0  0  0 
    1.7056    0.5638   -4.5917 H   0  0  0  0  0  0  0  0  0  0  0  0 
    7.1934    0.7346   -1.8647 H   0  0  0  0  0  0  0  0  0  0  0  0 
    7.5550    1.9988   -0.6752 H   0  0  0  0  0  0  0  0  0  0  0  0 
    8.2298    2.1000   -2.3214 H   0  0  0  0  0  0  0  0  0  0  0  0 
    2.4396   -0.3686   -0.2636 H   0  0  0  0  0  0  0  0  0  0  0  0 
    1.5810   -1.0050   -1.6621 H   0  0  0  0  0  0  0  0  0  0  0  0 
    1.2432    1.5219   -1.6965 H   0  0  0  0  0  0  0  0  0  0  0  0 
    2.3207    2.2604   -2.8723 H   0  0  0  0  0  0  0  0  0  0  0  0 
    4.4819    2.3049   -3.4130 H   0  0  0  0  0  0  0  0  0  0  0  0 
    5.4745    0.8500   -3.2521 H   0  0  0  0  0  0  0  0  0  0  0  0 
    3.7846    2.0218   -0.9723 H   0  0  0  0  0  0  0  0  0  0  0  0 
    4.7017    0.5139   -0.9354 H   0  0  0  0  0  0  0  0  0  0  0  0 
    6.9864    5.8863   -1.5070 H   0  0  0  0  0  0  0  0  0  0  0  0 
  1  4  1  0  0  0  0 
  1 14  1  0  0  0  0 
  1 13  1  0  0  0  0 
  2 17  1  0  0  0  0 
  2  5  1  0  0  0  0 
  3 20  1  0  0  0  0 
  4 22  1  0  0  0  0 
  5 10  1  0  0  0  0 
  5 24  1  0  0  0  0 
  6  9  1  0  0  0  0 
  6  7  1  0  0  0  0 
  7 28  1  0  0  0  0 
  7 29  1  0  0  0  0 
  8 12  1  0  0  0  0 
  9  8  1  0  0  0  0 
  9  3  1  0  0  0  0 
 10  7  1  0  0  0  0 
 10  4  1  0  0  0  0 
 11  8  2  0  0  0  0 
 15  1  1  0  0  0  0 
 16  2  1  0  0  0  0 
 18  2  1  0  0  0  0 
 19  3  1  0  0  0  0 
 21  3  1  0  0  0  0 
 23  4  1  0  0  0  0 
 25  5  1  0  0  0  0 
 26  6  1  0  0  0  0 
 27  6  1  0  0  0  0 
 30 12  1  0  0  0  0 
M  END 
>  <HBA> 
4 
 
>  <HBD> 
1 
 
>  <TPSA> 
77.37 
 
>  <cid> 
29391 
 
>  <dipole> 
3.8 
 
>  <excitation_energy_1> 
3.579 
 
>  <excitation_energy_2> 
4.336 
 
>  <excitation_energy_3> 
4.567 
 
>  <excitation_energy_4> 
4.839 
 
>  <homo_energy> 
-5.69 
 
>  <homo_lumo_gap> 
4.909 
 
>  <logP> 
1.475 
 
>  <lumo_energy> 
-0.781 
 
>  <melting_point> 
28.0 
 
>  <molecular_refractivity> 
62.08 
 
>  <oscillator_strength_1> 
0.0004 
 
>  <oscillator_strength_2> 
0.0179 
 
>  <oscillator_strength_3> 
0.0032 
 
>  <oscillator_strength_4> 
0.0035 
 
>  <open_babel_can_smiles> 
CCN(CCN(C(=S)S)C)CC 
 
>  <mulliken_charges> 
30 
1   -0.441508 
2   -0.43953 
3   -0.348946 
4   -0.122349 
5   -0.140155 
6   -0.163815 
7   -0.131363 
8   -0.016524 
9   -0.327375 
10   -0.382169 
11   -0.249454 
12   -0.012482 
13   0.142828 
14   0.137987 
15   0.154812 
16   0.143704 
17   0.143329 
18   0.152006 
19   0.179071 
20   0.195679 
21   0.19582 
22   0.116368 
23   0.1427 
24   0.118941 
25   0.167526 
26   0.202348 
27   0.156806 
28   0.153167 
29   0.133577 
30   0.138997 
 
>  <lowdin_charges> 
30 
1   -0.449435 
2   -0.450206 
3   -0.357488 
4   -0.194808 
5   -0.201835 
6   -0.208511 
7   -0.210501 
8   -0.149387 
9   -0.062472 
10   -0.1929 
11   -0.237057 
12   -0.01784 
13   0.152804 
14   0.142482 
15   0.15329 
16   0.153263 
17   0.145995 
18   0.153287 
19   0.168648 
20   0.169905 
21   0.172382 
22   0.118933 
23   0.147004 
24   0.123933 
25   0.157752 
26   0.180015 
27   0.154721 
28   0.142763 
29   0.143795 
30   0.151471 
 
$$$$ 
 
