PCCDB-ID:  12683 
public computational chemistry database (PCCDB) project, http://pccdb.org 
 
 30 29  0  0  0  0  0  0  0  0999 V2000 
    2.3368    1.9959    4.8777 C   0  0  0  0  0  0  0  0  0  0  0  0 
    8.5687   -0.4283    2.3562 C   0  0  0  0  0  0  0  0  0  0  0  0 
    3.3198    2.5623    4.1794 C   0  0  0  0  0  0  0  0  0  0  0  0 
    7.1315    0.0066    2.0370 C   0  0  0  0  0  0  0  0  0  0  0  0 
    3.6392    2.2375    2.7501 C   0  0  0  0  0  0  0  0  0  0  0  0 
    7.3850    1.2513   -0.1774 C   0  0  0  0  0  0  0  0  0  0  0  0 
    7.7020    2.5321    1.9502 C   0  0  0  0  0  0  0  0  0  0  0  0 
    5.4354    1.6987    1.3059 C   0  0  0  0  0  0  0  0  0  0  0  0 
    6.9376    1.3548    1.2907 C   0  0  0  0  0  0  0  0  0  0  0  0 
    6.5933    0.2613   -0.8356 O   0  0  0  0  0  0  0  0  0  0  0  0 
    9.0942    2.5851    1.6402 O   0  0  0  0  0  0  0  0  0  0  0  0 
    5.0263    1.9571    2.6417 O   0  0  0  0  0  0  0  0  0  0  0  0 
    2.1216    2.2862    5.9025 H   0  0  0  0  0  0  0  0  0  0  0  0 
    1.7041    1.2211    4.4494 H   0  0  0  0  0  0  0  0  0  0  0  0 
    8.5706   -1.4454    2.7644 H   0  0  0  0  0  0  0  0  0  0  0  0 
    9.0360    0.2065    3.1215 H   0  0  0  0  0  0  0  0  0  0  0  0 
    9.2147   -0.4367    1.4704 H   0  0  0  0  0  0  0  0  0  0  0  0 
    3.9453    3.3313    4.6316 H   0  0  0  0  0  0  0  0  0  0  0  0 
    6.5643    0.0625    2.9730 H   0  0  0  0  0  0  0  0  0  0  0  0 
    6.6577   -0.7717    1.4279 H   0  0  0  0  0  0  0  0  0  0  0  0 
    3.3852    3.0964    2.1014 H   0  0  0  0  0  0  0  0  0  0  0  0 
    3.0388    1.3805    2.4022 H   0  0  0  0  0  0  0  0  0  0  0  0 
    8.4521    1.0014   -0.2232 H   0  0  0  0  0  0  0  0  0  0  0  0 
    7.2638    2.2345   -0.6616 H   0  0  0  0  0  0  0  0  0  0  0  0 
    7.5330    2.5186    3.0348 H   0  0  0  0  0  0  0  0  0  0  0  0 
    7.2958    3.4777    1.5738 H   0  0  0  0  0  0  0  0  0  0  0  0 
    4.8541    0.8690    0.8788 H   0  0  0  0  0  0  0  0  0  0  0  0 
    5.2488    2.5890    0.6791 H   0  0  0  0  0  0  0  0  0  0  0  0 
    6.9204    0.1786   -1.7435 H   0  0  0  0  0  0  0  0  0  0  0  0 
    9.5310    1.8627    2.1134 H   0  0  0  0  0  0  0  0  0  0  0  0 
  1 13  1  0  0  0  0 
  2 15  1  0  0  0  0 
  2 16  1  0  0  0  0 
  3 18  1  0  0  0  0 
  3  1  2  0  0  0  0 
  4  2  1  0  0  0  0 
  4 19  1  0  0  0  0 
  5  3  1  0  0  0  0 
  6  9  1  0  0  0  0 
  7 25  1  0  0  0  0 
  8 12  1  0  0  0  0 
  9  8  1  0  0  0  0 
  9  7  1  0  0  0  0 
  9  4  1  0  0  0  0 
 10  6  1  0  0  0  0 
 11  7  1  0  0  0  0 
 11 30  1  0  0  0  0 
 12  5  1  0  0  0  0 
 14  1  1  0  0  0  0 
 17  2  1  0  0  0  0 
 20  4  1  0  0  0  0 
 21  5  1  0  0  0  0 
 22  5  1  0  0  0  0 
 23  6  1  0  0  0  0 
 24  6  1  0  0  0  0 
 26  7  1  0  0  0  0 
 27  8  1  0  0  0  0 
 28  8  1  0  0  0  0 
 29 10  1  0  0  0  0 
M  END 
>  <HBA> 
3 
 
>  <HBD> 
2 
 
>  <TPSA> 
49.69 
 
>  <cid> 
12683 
 
>  <dipole> 
1.04 
 
>  <excitation_energy_1> 
6.036 
 
>  <excitation_energy_2> 
6.264 
 
>  <excitation_energy_3> 
6.342 
 
>  <excitation_energy_4> 
6.47 
 
>  <homo_energy> 
-6.759 
 
>  <homo_lumo_gap> 
7.14 
 
>  <logP> 
0.57 
 
>  <lumo_energy> 
0.381 
 
>  <melting_point> 
-2.18 
 
>  <molecular_refractivity> 
48.05 
 
>  <oscillator_strength_1> 
0.0139 
 
>  <oscillator_strength_2> 
0.0018 
 
>  <oscillator_strength_3> 
0.0036 
 
>  <oscillator_strength_4> 
0.0123 
 
>  <open_babel_can_smiles> 
C=CCOCC(CO)(CO)CC 
 
>  <mulliken_charges> 
30 
1   -0.336484 
2   -0.477047 
3   -0.052831 
4   -0.268456 
5   -0.049709 
6   -0.033577 
7   -0.048566 
8   -0.014531 
9   0.015733 
10   -0.628875 
11   -0.632243 
12   -0.489458 
13   0.144442 
14   0.140024 
15   0.151621 
16   0.131504 
17   0.150065 
18   0.139386 
19   0.155765 
20   0.156642 
21   0.127255 
22   0.127173 
23   0.136193 
24   0.119146 
25   0.145819 
26   0.138751 
27   0.147114 
28   0.112383 
29   0.394979 
30   0.397779 
 
>  <lowdin_charges> 
30 
1   -0.32926 
2   -0.453719 
3   -0.149315 
4   -0.283893 
5   -0.124652 
6   -0.135654 
7   -0.135527 
8   -0.132649 
9   -0.028869 
10   -0.474542 
11   -0.473989 
12   -0.277074 
13   0.160028 
14   0.15708 
15   0.155088 
16   0.139068 
17   0.147781 
18   0.159198 
19   0.154122 
20   0.156281 
21   0.133183 
22   0.133691 
23   0.134297 
24   0.128072 
25   0.13935 
26   0.146304 
27   0.143037 
28   0.125518 
29   0.345756 
30   0.341292 
 
$$$$ 
 
