PCCDB-ID:  11349 
public computational chemistry database (PCCDB) project, http://pccdb.org 
 
 28 30  0  0  0  0  0  0  0  0999 V2000 
   -1.4581   -0.1164    0.2922 C   0  0  0  0  0  0  0  0  0  0  0  0 
   -0.5795   -1.2000    0.2352 C   0  0  0  0  0  0  0  0  0  0  0  0 
   -0.9550    1.1800    0.1736 C   0  0  0  0  0  0  0  0  0  0  0  0 
    7.5445   -0.9427   -0.7862 C   0  0  0  0  0  0  0  0  0  0  0  0 
    6.7480   -2.0968   -0.6550 C   0  0  0  0  0  0  0  0  0  0  0  0 
    0.7852   -0.9914    0.0622 C   0  0  0  0  0  0  0  0  0  0  0  0 
    0.4092    1.4007   -0.0004 C   0  0  0  0  0  0  0  0  0  0  0  0 
    6.9557    0.3089   -0.7487 C   0  0  0  0  0  0  0  0  0  0  0  0 
    5.3751   -2.0000   -0.4862 C   0  0  0  0  0  0  0  0  0  0  0  0 
    1.3045    0.3134   -0.0595 C   0  0  0  0  0  0  0  0  0  0  0  0 
    5.5633    0.4325   -0.5795 C   0  0  0  0  0  0  0  0  0  0  0  0 
    4.7862   -0.7289   -0.4503 C   0  0  0  0  0  0  0  0  0  0  0  0 
    4.8928    1.7228   -0.5346 C   0  0  0  0  0  0  0  0  0  0  0  0 
    3.4418    1.6855   -0.3614 C   0  0  0  0  0  0  0  0  0  0  0  0 
    2.7479    0.5112   -0.2407 C   0  0  0  0  0  0  0  0  0  0  0  0 
    5.4472    2.8306   -0.6320 O   0  0  0  0  0  0  0  0  0  0  0  0 
    2.8702    2.9117   -0.3287 O   0  0  0  0  0  0  0  0  0  0  0  0 
    3.4383   -0.6789   -0.2863 O   0  0  0  0  0  0  0  0  0  0  0  0 
   -2.5235   -0.2813    0.4280 H   0  0  0  0  0  0  0  0  0  0  0  0 
   -0.9576   -2.2148    0.3260 H   0  0  0  0  0  0  0  0  0  0  0  0 
   -1.6285    2.0317    0.2171 H   0  0  0  0  0  0  0  0  0  0  0  0 
    8.6180   -1.0390   -0.9176 H   0  0  0  0  0  0  0  0  0  0  0  0 
    7.2123   -3.0785   -0.6845 H   0  0  0  0  0  0  0  0  0  0  0  0 
    1.4572   -1.8399    0.0205 H   0  0  0  0  0  0  0  0  0  0  0  0 
    0.7838    2.4111   -0.0904 H   0  0  0  0  0  0  0  0  0  0  0  0 
    7.5371    1.2201   -0.8465 H   0  0  0  0  0  0  0  0  0  0  0  0 
    4.7465   -2.8785   -0.3835 H   0  0  0  0  0  0  0  0  0  0  0  0 
    3.6446    3.5157   -0.4392 H   0  0  0  0  0  0  0  0  0  0  0  0 
  1 19  1  0  0  0  0 
  2  1  1  0  0  0  0 
  2 20  1  0  0  0  0 
  3 21  1  0  0  0  0 
  3  1  2  0  0  0  0 
  4  8  2  0  0  0  0 
  4  5  1  0  0  0  0 
  5  9  2  0  0  0  0 
  6  2  2  0  0  0  0 
  7  3  1  0  0  0  0 
  8 11  1  0  0  0  0 
  9 12  1  0  0  0  0 
  9 27  1  0  0  0  0 
 10  7  2  0  0  0  0 
 10  6  1  0  0  0  0 
 11 13  1  0  0  0  0 
 11 12  2  0  0  0  0 
 12 18  1  0  0  0  0 
 13 14  1  0  0  0  0 
 14 17  1  0  0  0  0 
 14 15  2  0  0  0  0 
 15 10  1  0  0  0  0 
 16 13  2  0  0  0  0 
 18 15  1  0  0  0  0 
 22  4  1  0  0  0  0 
 23  5  1  0  0  0  0 
 24  6  1  0  0  0  0 
 25  7  1  0  0  0  0 
 26  8  1  0  0  0  0 
 28 17  1  0  0  0  0 
M  END 
>  <HBA> 
3 
 
>  <HBD> 
1 
 
>  <TPSA> 
50.44 
 
>  <cid> 
11349 
 
>  <dipole> 
3.08 
 
>  <excitation_energy_1> 
3.546 
 
>  <excitation_energy_2> 
4.053 
 
>  <excitation_energy_3> 
4.183 
 
>  <excitation_energy_4> 
4.308 
 
>  <homo_energy> 
-5.788 
 
>  <homo_lumo_gap> 
3.834 
 
>  <logP> 
3.166 
 
>  <lumo_energy> 
-1.954 
 
>  <melting_point> 
161.57 
 
>  <molecular_refractivity> 
69.94 
 
>  <oscillator_strength_1> 
0.3927 
 
>  <oscillator_strength_2> 
0.0 
 
>  <oscillator_strength_3> 
0.1147 
 
>  <oscillator_strength_4> 
0.0332 
 
>  <open_babel_can_smiles> 
O=c1c(O)c(oc2c1cccc2)c1ccccc1 
 
>  <mulliken_charges> 
28 
1   -0.119442 
2   -0.135194 
3   -0.140579 
4   -0.135496 
5   -0.127927 
6   -0.161228 
7   -0.179721 
8   -0.171388 
9   -0.178661 
10   0.083557 
11   0.071382 
12   0.309514 
13   0.384045 
14   0.243761 
15   0.26388 
16   -0.561239 
17   -0.661146 
18   -0.552878 
19   0.133466 
20   0.13293 
21   0.135555 
22   0.14248 
23   0.144947 
24   0.146998 
25   0.18308 
26   0.168592 
27   0.152343 
28   0.428371 
 
>  <lowdin_charges> 
28 
1   -0.146437 
2   -0.154558 
3   -0.155434 
4   -0.159468 
5   -0.132223 
6   -0.154455 
7   -0.151726 
8   -0.123621 
9   -0.175554 
10   -0.015086 
11   -0.065955 
12   0.112909 
13   0.117701 
14   0.027276 
15   0.084066 
16   -0.310232 
17   -0.368575 
18   -0.107622 
19   0.15816 
20   0.158719 
21   0.161476 
22   0.163106 
23   0.1659 
24   0.167657 
25   0.182765 
26   0.180453 
27   0.173615 
28   0.367142 
 
$$$$ 
 
