PCCDB-ID:  12840 
public computational chemistry database (PCCDB) project, http://pccdb.org 
 
 19 20  0  0  0  0  0  0  0  0999 V2000 
   -1.5542    1.1557   -0.0801 C   0  0  0  0  0  0  0  0  0  0  0  0 
    0.6048   -0.7025   -0.2057 C   0  0  0  0  0  0  0  0  0  0  0  0 
   -3.2639   -0.6142    0.0332 C   0  0  0  0  0  0  0  0  0  0  0  0 
    1.6770    2.7261   -0.1605 C   0  0  0  0  0  0  0  0  0  0  0  0 
   -1.8208   -0.2308   -0.1150 C   0  0  0  0  0  0  0  0  0  0  0  0 
   -0.7356   -1.1253   -0.1884 C   0  0  0  0  0  0  0  0  0  0  0  0 
   -0.2423    1.5683   -0.1196 C   0  0  0  0  0  0  0  0  0  0  0  0 
    0.8170    0.6576   -0.1730 C   0  0  0  0  0  0  0  0  0  0  0  0 
   -0.9383   -2.5773   -0.2931 N   0  0  0  0  0  0  0  0  0  0  0  0 
   -4.1525    0.2130   -0.0406 O   0  0  0  0  0  0  0  0  0  0  0  0 
   -0.0161   -3.3058    0.0721 O   0  0  0  0  0  0  0  0  0  0  0  0 
   -2.0051   -2.9820   -0.7597 O   0  0  0  0  0  0  0  0  0  0  0  0 
    0.2476    2.8407   -0.1009 O   0  0  0  0  0  0  0  0  0  0  0  0 
    2.0035    1.3267   -0.1922 O   0  0  0  0  0  0  0  0  0  0  0  0 
   -2.3861    1.8469   -0.0129 H   0  0  0  0  0  0  0  0  0  0  0  0 
    1.4111   -1.4221   -0.2502 H   0  0  0  0  0  0  0  0  0  0  0  0 
   -3.4823   -1.6697    0.2451 H   0  0  0  0  0  0  0  0  0  0  0  0 
    2.1173    3.1814    0.7323 H   0  0  0  0  0  0  0  0  0  0  0  0 
    2.0440    3.2061   -1.0738 H   0  0  0  0  0  0  0  0  0  0  0  0 
  1 15  1  0  0  0  0 
  2  6  2  0  0  0  0 
  2  8  1  0  0  0  0 
  3 17  1  0  0  0  0 
  4 13  1  0  0  0  0 
  4 18  1  0  0  0  0 
  5  1  2  0  0  0  0 
  5  3  1  0  0  0  0 
  6  5  1  0  0  0  0 
  7 13  1  0  0  0  0 
  7  1  1  0  0  0  0 
  8  7  2  0  0  0  0 
  9  6  1  0  0  0  0 
  9 11  2  0  0  0  0 
 10  3  2  0  0  0  0 
 12  9  2  0  0  0  0 
 14  8  1  0  0  0  0 
 14  4  1  0  0  0  0 
 16  2  1  0  0  0  0 
 19  4  1  0  0  0  0 
M  END 
>  <HBA> 
3 
 
>  <HBD> 
0 
 
>  <TPSA> 
81.35 
 
>  <cid> 
12840 
 
>  <dipole> 
5.7 
 
>  <excitation_energy_1> 
3.239 
 
>  <excitation_energy_2> 
3.335 
 
>  <excitation_energy_3> 
3.774 
 
>  <excitation_energy_4> 
4.02 
 
>  <homo_energy> 
-6.729 
 
>  <homo_lumo_gap> 
3.924 
 
>  <logP> 
1.659 
 
>  <lumo_energy> 
-2.806 
 
>  <melting_point> 
112.34 
 
>  <molecular_refractivity> 
46.71 
 
>  <oscillator_strength_1> 
0.012 
 
>  <oscillator_strength_2> 
0.0695 
 
>  <oscillator_strength_3> 
0.0063 
 
>  <oscillator_strength_4> 
0.0092 
 
>  <open_babel_can_smiles> 
O=Cc1cc2OCOc2cc1N(=O)=O 
 
>  <mulliken_charges> 
19 
1   -0.235393 
2   -0.207408 
3   0.216341 
4   0.185062 
5   0.05557 
6   0.207802 
7   0.371844 
8   0.350121 
9   0.35847 
10   -0.399253 
11   -0.377386 
12   -0.392321 
13   -0.520233 
14   -0.521482 
15   0.194527 
16   0.200219 
17   0.155519 
18   0.179318 
19   0.178683 
 
>  <lowdin_charges> 
19 
1   -0.152463 
2   -0.169554 
3   0.051812 
4   0.023722 
5   -0.04271 
6   0.011162 
7   0.087698 
8   0.08737 
9   0.30828 
10   -0.219636 
11   -0.241728 
12   -0.242064 
13   -0.185598 
14   -0.185593 
15   0.197859 
16   0.201693 
17   0.149811 
18   0.160527 
19   0.159411 
 
$$$$ 
 
