PCCDB-ID:  66515 
public computational chemistry database (PCCDB) project, http://pccdb.org 
 
 28 29  0  0  0  0  0  0  0  0999 V2000 
    1.0933   -0.0246    0.7287 C   0  0  0  0  0  0  0  0  0  0  0  0 
    5.7385   -1.5494   -0.4899 C   0  0  0  0  0  0  0  0  0  0  0  0 
    1.9754   -4.9831   -0.0963 C   0  0  0  0  0  0  0  0  0  0  0  0 
    2.5541   -4.5025    1.0801 C   0  0  0  0  0  0  0  0  0  0  0  0 
    1.8528   -4.1451   -1.2065 C   0  0  0  0  0  0  0  0  0  0  0  0 
    3.0093   -3.1852    1.1496 C   0  0  0  0  0  0  0  0  0  0  0  0 
    2.3080   -2.8275   -1.1434 C   0  0  0  0  0  0  0  0  0  0  0  0 
    3.3603    1.2147    0.3903 C   0  0  0  0  0  0  0  0  0  0  0  0 
    5.8367    1.6682   -0.0938 C   0  0  0  0  0  0  0  0  0  0  0  0 
    2.5502    0.1115    0.4225 C   0  0  0  0  0  0  0  0  0  0  0  0 
    4.6490   -0.5948   -0.1235 C   0  0  0  0  0  0  0  0  0  0  0  0 
    4.6862    0.7897    0.0478 C   0  0  0  0  0  0  0  0  0  0  0  0 
    2.8858   -2.3494    0.0361 C   0  0  0  0  0  0  0  0  0  0  0  0 
    3.3517   -0.9952    0.1048 N   0  0  0  0  0  0  0  0  0  0  0  0 
    6.9797    1.3384   -0.3846 O   0  0  0  0  0  0  0  0  0  0  0  0 
    0.6782    0.9616    0.9540 H   0  0  0  0  0  0  0  0  0  0  0  0 
    0.9087   -0.6732    1.5947 H   0  0  0  0  0  0  0  0  0  0  0  0 
    0.5258   -0.4434   -0.1121 H   0  0  0  0  0  0  0  0  0  0  0  0 
    6.6507   -0.9799   -0.6707 H   0  0  0  0  0  0  0  0  0  0  0  0 
    5.4888   -2.1233   -1.3912 H   0  0  0  0  0  0  0  0  0  0  0  0 
    5.9312   -2.2753    0.3106 H   0  0  0  0  0  0  0  0  0  0  0  0 
    1.6213   -6.0088   -0.1480 H   0  0  0  0  0  0  0  0  0  0  0  0 
    2.6517   -5.1521    1.9454 H   0  0  0  0  0  0  0  0  0  0  0  0 
    1.4043   -4.5164   -2.1236 H   0  0  0  0  0  0  0  0  0  0  0  0 
    3.4586   -2.7971    2.0589 H   0  0  0  0  0  0  0  0  0  0  0  0 
    2.2244   -2.1664   -2.0009 H   0  0  0  0  0  0  0  0  0  0  0  0 
    3.0476    2.2316    0.5915 H   0  0  0  0  0  0  0  0  0  0  0  0 
    5.6031    2.7419    0.0902 H   0  0  0  0  0  0  0  0  0  0  0  0 
  1 16  1  0  0  0  0 
  1 17  1  0  0  0  0 
  2 11  1  0  0  0  0 
  2 21  1  0  0  0  0 
  3  4  2  0  0  0  0 
  4  6  1  0  0  0  0 
  4 23  1  0  0  0  0 
  5  7  2  0  0  0  0 
  5  3  1  0  0  0  0 
  6 25  1  0  0  0  0 
  7 13  1  0  0  0  0 
  8 10  2  0  0  0  0 
  8 27  1  0  0  0  0 
  9 12  1  0  0  0  0 
  9 28  1  0  0  0  0 
 10  1  1  0  0  0  0 
 11 12  2  0  0  0  0 
 11 14  1  0  0  0  0 
 12  8  1  0  0  0  0 
 13 14  1  0  0  0  0 
 13  6  2  0  0  0  0 
 14 10  1  0  0  0  0 
 15  9  2  0  0  0  0 
 18  1  1  0  0  0  0 
 19  2  1  0  0  0  0 
 20  2  1  0  0  0  0 
 22  3  1  0  0  0  0 
 24  5  1  0  0  0  0 
 26  7  1  0  0  0  0 
M  END 
>  <HBA> 
2 
 
>  <HBD> 
0 
 
>  <TPSA> 
22.0 
 
>  <cid> 
66515 
 
>  <dipole> 
5.65 
 
>  <excitation_energy_1> 
3.954 
 
>  <excitation_energy_2> 
4.079 
 
>  <excitation_energy_3> 
4.219 
 
>  <excitation_energy_4> 
4.368 
 
>  <homo_energy> 
-5.587 
 
>  <homo_lumo_gap> 
4.884 
 
>  <logP> 
2.907 
 
>  <lumo_energy> 
-0.702 
 
>  <melting_point> 
82.18 
 
>  <molecular_refractivity> 
61.09 
 
>  <oscillator_strength_1> 
0.0003 
 
>  <oscillator_strength_2> 
0.0025 
 
>  <oscillator_strength_3> 
0.0079 
 
>  <oscillator_strength_4> 
0.0644 
 
>  <open_babel_can_smiles> 
O=Cc1cc(n(c1C)c1ccccc1)C 
 
>  <mulliken_charges> 
28 
1   -0.523034 
2   -0.537584 
3   -0.115907 
4   -0.143392 
5   -0.143268 
6   -0.129477 
7   -0.129961 
8   -0.267271 
9   0.176441 
10   0.322143 
11   0.312928 
12   0.001846 
13   0.22656 
14   -0.583539 
15   -0.440962 
16   0.167532 
17   0.163677 
18   0.162464 
19   0.21324 
20   0.15999 
21   0.160429 
22   0.140415 
23   0.14336 
24   0.143202 
25   0.151378 
26   0.151127 
27   0.1281 
28   0.089562 
 
>  <lowdin_charges> 
28 
1   -0.443435 
2   -0.455192 
3   -0.146632 
4   -0.149921 
5   -0.149262 
6   -0.15768 
7   -0.158975 
8   -0.215429 
9   0.042632 
10   0.007426 
11   0.048326 
12   -0.112368 
13   0.04236 
14   0.001131 
15   -0.266771 
16   0.168468 
17   0.161588 
18   0.161289 
19   0.191794 
20   0.162673 
21   0.162908 
22   0.162432 
23   0.165171 
24   0.164777 
25   0.170767 
26   0.170869 
27   0.161187 
28   0.109866 
 
$$$$ 
 
