PCCDB-ID:  62551 
public computational chemistry database (PCCDB) project, http://pccdb.org 
 
 38 37  0  0  0  0  0  0  0  0999 V2000 
   -2.8808   -2.9267    1.1333 C   0  0  0  0  0  0  0  0  0  0  0  0 
  -10.3880    4.4811    5.6638 C   0  0  0  0  0  0  0  0  0  0  0  0 
   -3.7208   -3.8040    2.0583 C   0  0  0  0  0  0  0  0  0  0  0  0 
   -9.2252    3.6653    6.2239 C   0  0  0  0  0  0  0  0  0  0  0  0 
   -4.5769   -2.4183    3.8586 C   0  0  0  0  0  0  0  0  0  0  0  0 
   -7.2908    4.5732    5.1220 C   0  0  0  0  0  0  0  0  0  0  0  0 
   -4.6573   -0.9128    3.6167 C   0  0  0  0  0  0  0  0  0  0  0  0 
   -6.1964    4.2140    4.1281 C   0  0  0  0  0  0  0  0  0  0  0  0 
   -4.3676    1.1052    4.8702 C   0  0  0  0  0  0  0  0  0  0  0  0 
   -5.6161    1.9140    4.5161 C   0  0  0  0  0  0  0  0  0  0  0  0 
   -2.1148   -1.9333    1.8075 O   0  0  0  0  0  0  0  0  0  0  0  0 
  -10.8936    3.8816    4.4843 O   0  0  0  0  0  0  0  0  0  0  0  0 
   -4.8174   -3.1454    2.6594 O   0  0  0  0  0  0  0  0  0  0  0  0 
   -8.2108    3.4917    5.2327 O   0  0  0  0  0  0  0  0  0  0  0  0 
   -4.6066   -0.2906    4.8937 O   0  0  0  0  0  0  0  0  0  0  0  0 
   -5.2480    3.2851    4.6132 O   0  0  0  0  0  0  0  0  0  0  0  0 
   -3.5471   -2.3812    0.4580 H   0  0  0  0  0  0  0  0  0  0  0  0 
   -2.2343   -3.5754    0.5182 H   0  0  0  0  0  0  0  0  0  0  0  0 
  -10.0696    5.5214    5.4793 H   0  0  0  0  0  0  0  0  0  0  0  0 
  -11.2060    4.5152    6.3921 H   0  0  0  0  0  0  0  0  0  0  0  0 
   -3.0731   -4.2653    2.8249 H   0  0  0  0  0  0  0  0  0  0  0  0 
   -4.1516   -4.6210    1.4644 H   0  0  0  0  0  0  0  0  0  0  0  0 
   -9.5729    2.6563    6.4671 H   0  0  0  0  0  0  0  0  0  0  0  0 
   -8.8106    4.1264    7.1330 H   0  0  0  0  0  0  0  0  0  0  0  0 
   -5.3525   -2.7038    4.5799 H   0  0  0  0  0  0  0  0  0  0  0  0 
   -3.6018   -2.6718    4.2954 H   0  0  0  0  0  0  0  0  0  0  0  0 
   -7.7961    5.4895    4.7745 H   0  0  0  0  0  0  0  0  0  0  0  0 
   -6.8397    4.7871    6.1031 H   0  0  0  0  0  0  0  0  0  0  0  0 
   -5.5969   -0.6869    3.0893 H   0  0  0  0  0  0  0  0  0  0  0  0 
   -3.8180   -0.5895    2.9863 H   0  0  0  0  0  0  0  0  0  0  0  0 
   -5.6338    5.1276    3.9000 H   0  0  0  0  0  0  0  0  0  0  0  0 
   -6.6558    3.8554    3.1930 H   0  0  0  0  0  0  0  0  0  0  0  0 
   -4.0400    1.3802    5.8783 H   0  0  0  0  0  0  0  0  0  0  0  0 
   -3.5561    1.3568    4.1698 H   0  0  0  0  0  0  0  0  0  0  0  0 
   -6.4353    1.6634    5.2006 H   0  0  0  0  0  0  0  0  0  0  0  0 
   -5.9527    1.6867    3.4916 H   0  0  0  0  0  0  0  0  0  0  0  0 
   -1.4696   -2.3883    2.3712 H   0  0  0  0  0  0  0  0  0  0  0  0 
  -10.1079    3.6167    3.9756 H   0  0  0  0  0  0  0  0  0  0  0  0 
  1 11  1  0  0  0  0 
  1  3  1  0  0  0  0 
  2  4  1  0  0  0  0 
  2 20  1  0  0  0  0 
  3 13  1  0  0  0  0 
  3 21  1  0  0  0  0 
  4 23  1  0  0  0  0 
  4 24  1  0  0  0  0 
  5 26  1  0  0  0  0 
  5 25  1  0  0  0  0 
  6 14  1  0  0  0  0 
  6 28  1  0  0  0  0 
  7  5  1  0  0  0  0 
  7 15  1  0  0  0  0 
  8 16  1  0  0  0  0 
  8  6  1  0  0  0  0 
  9 15  1  0  0  0  0 
  9 33  1  0  0  0  0 
 10 16  1  0  0  0  0 
 10  9  1  0  0  0  0 
 10 35  1  0  0  0  0 
 11 37  1  0  0  0  0 
 12  2  1  0  0  0  0 
 13  5  1  0  0  0  0 
 14  4  1  0  0  0  0 
 17  1  1  0  0  0  0 
 18  1  1  0  0  0  0 
 19  2  1  0  0  0  0 
 22  3  1  0  0  0  0 
 27  6  1  0  0  0  0 
 29  7  1  0  0  0  0 
 30  7  1  0  0  0  0 
 31  8  1  0  0  0  0 
 32  8  1  0  0  0  0 
 34  9  1  0  0  0  0 
 36 10  1  0  0  0  0 
 38 12  1  0  0  0  0 
M  END 
>  <HBA> 
6 
 
>  <HBD> 
2 
 
>  <TPSA> 
77.38 
 
>  <cid> 
62551 
 
>  <dipole> 
2.31 
 
>  <excitation_energy_1> 
5.994 
 
>  <excitation_energy_2> 
6.342 
 
>  <excitation_energy_3> 
6.366 
 
>  <excitation_energy_4> 
6.538 
 
>  <homo_energy> 
-6.572 
 
>  <homo_lumo_gap> 
8.229 
 
>  <logP> 
-0.963 
 
>  <lumo_energy> 
1.657 
 
>  <melting_point> 
-27.78 
 
>  <molecular_refractivity> 
56.85 
 
>  <oscillator_strength_1> 
0.0128 
 
>  <oscillator_strength_2> 
0.0228 
 
>  <oscillator_strength_3> 
0.0075 
 
>  <oscillator_strength_4> 
0.0025 
 
>  <open_babel_can_smiles> 
OCCOCCOCCOCCOCCO 
 
>  <mulliken_charges> 
38 
1   -0.045811 
2   -0.033994 
3   -0.04136 
4   -0.055148 
5   -0.031789 
6   -0.033643 
7   -0.043821 
8   -0.032749 
9   -0.032952 
10   -0.035904 
11   -0.604022 
12   -0.619545 
13   -0.470934 
14   -0.482964 
15   -0.486865 
16   -0.480601 
17   0.161791 
18   0.120017 
19   0.121372 
20   0.145353 
21   0.114019 
22   0.143397 
23   0.160761 
24   0.127121 
25   0.147947 
26   0.122732 
27   0.124513 
28   0.139637 
29   0.128866 
30   0.156466 
31   0.14595 
32   0.130714 
33   0.149438 
34   0.131448 
35   0.153812 
36   0.121336 
37   0.389259 
38   0.396152 
 
>  <lowdin_charges> 
38 
1   -0.157746 
2   -0.148625 
3   -0.150113 
4   -0.1517 
5   -0.133188 
6   -0.148275 
7   -0.15317 
8   -0.137566 
9   -0.137419 
10   -0.145588 
11   -0.462909 
12   -0.469559 
13   -0.268634 
14   -0.280547 
15   -0.275136 
16   -0.273041 
17   0.157773 
18   0.132439 
19   0.123477 
20   0.151032 
21   0.126747 
22   0.151441 
23   0.155208 
24   0.137112 
25   0.147116 
26   0.132547 
27   0.132836 
28   0.139381 
29   0.130316 
30   0.146145 
31   0.152454 
32   0.136271 
33   0.149651 
34   0.134467 
35   0.144437 
36   0.127616 
37   0.34325 
38   0.341499 
 
$$$$ 
 
