PCCDB-ID:  6925 
public computational chemistry database (PCCDB) project, http://pccdb.org 
 
 19 19  0  0  0  0  0  0  0  0999 V2000 
    0.8463   -0.1977   -0.0835 C   0  0  0  0  0  0  0  0  0  0  0  0 
    4.5399   -1.1674   -0.1629 C   0  0  0  0  0  0  0  0  0  0  0  0 
    5.1863    0.0664   -0.2072 C   0  0  0  0  0  0  0  0  0  0  0  0 
    3.1461   -1.2303   -0.1276 C   0  0  0  0  0  0  0  0  0  0  0  0 
    4.4276    1.2355   -0.2181 C   0  0  0  0  0  0  0  0  0  0  0  0 
    2.3506   -0.0777   -0.1313 C   0  0  0  0  0  0  0  0  0  0  0  0 
    3.0336    1.1545   -0.1819 C   0  0  0  0  0  0  0  0  0  0  0  0 
    1.2935    2.6600   -1.5698 O   0  0  0  0  0  0  0  0  0  0  0  0 
    1.1651    2.7087    0.9114 O   0  0  0  0  0  0  0  0  0  0  0  0 
    3.1149    3.8069   -0.3064 O   0  0  0  0  0  0  0  0  0  0  0  0 
    2.1516    2.7151   -0.1583 S   0  0  0  0  0  0  0  0  0  0  0  0 
    0.5483   -1.2481   -0.1448 H   0  0  0  0  0  0  0  0  0  0  0  0 
    0.3731    0.3428   -0.9097 H   0  0  0  0  0  0  0  0  0  0  0  0 
    0.4461    0.2252    0.8432 H   0  0  0  0  0  0  0  0  0  0  0  0 
    5.1187   -2.0869   -0.1555 H   0  0  0  0  0  0  0  0  0  0  0  0 
    6.2702    0.1238   -0.2337 H   0  0  0  0  0  0  0  0  0  0  0  0 
    2.6543   -2.1989   -0.0954 H   0  0  0  0  0  0  0  0  0  0  0  0 
    4.9016    2.2100   -0.2522 H   0  0  0  0  0  0  0  0  0  0  0  0 
    1.7604    3.2422   -2.1985 H   0  0  0  0  0  0  0  0  0  0  0  0 
  1 14  1  0  0  0  0 
  2 15  1  0  0  0  0 
  2  4  2  0  0  0  0 
  3  2  1  0  0  0  0 
  4 17  1  0  0  0  0 
  5  3  2  0  0  0  0 
  5  7  1  0  0  0  0 
  6  4  1  0  0  0  0 
  6  1  1  0  0  0  0 
  7 11  1  0  0  0  0 
  7  6  2  0  0  0  0 
  8 11  1  0  0  0  0 
 10 11  1  0  0  0  0 
 11  9  1  0  0  0  0 
 12  1  1  0  0  0  0 
 13  1  1  0  0  0  0 
 16  3  1  0  0  0  0 
 18  5  1  0  0  0  0 
 19  8  1  0  0  0  0 
M  RAD  2   9   2  10   2 
M  END 
>  <HBA> 
3 
 
>  <HBD> 
1 
 
>  <TPSA> 
62.75 
 
>  <cid> 
6925 
 
>  <dipole> 
4.45 
 
>  <excitation_energy_1> 
5.094 
 
>  <excitation_energy_2> 
5.689 
 
>  <excitation_energy_3> 
6.295 
 
>  <excitation_energy_4> 
6.335 
 
>  <homo_energy> 
-7.181 
 
>  <homo_lumo_gap> 
5.995 
 
>  <logP> 
2.322 
 
>  <lumo_energy> 
-1.186 
 
>  <melting_point> 
93.65 
 
>  <molecular_refractivity> 
41.27 
 
>  <oscillator_strength_1> 
0.0265 
 
>  <oscillator_strength_2> 
0.078 
 
>  <oscillator_strength_3> 
0.0353 
 
>  <oscillator_strength_4> 
0.017 
 
>  <open_babel_can_smiles> 
Cc1ccccc1S(O)([O])[O] 
 
>  <mulliken_charges> 
19 
1   -0.545376 
2   -0.114281 
3   -0.126684 
4   -0.175167 
5   -0.152402 
6   0.177675 
7   -0.22533 
8   -0.649934 
9   -0.499704 
10   -0.526501 
11   1.230624 
12   0.154239 
13   0.192668 
14   0.204244 
15   0.144782 
16   0.145945 
17   0.139485 
18   0.187118 
19   0.4386 
 
>  <lowdin_charges> 
19 
1   -0.450668 
2   -0.135198 
3   -0.153711 
4   -0.16042 
5   -0.138589 
6   0.029038 
7   -0.195808 
8   -0.586655 
9   -0.551889 
10   -0.583313 
11   1.346018 
12   0.157468 
13   0.177704 
14   0.183805 
15   0.165766 
16   0.164527 
17   0.163185 
18   0.186553 
19   0.382187 
 
$$$$ 
 
