PCCDB-ID:  7267 
public computational chemistry database (PCCDB) project, http://pccdb.org 
 
 19 19  0  0  0  0  0  0  0  0999 V2000 
    1.0115    0.0343    0.1769 C   0  0  0  0  0  0  0  0  0  0  0  0 
    6.8420   -0.0762   -0.4453 C   0  0  0  0  0  0  0  0  0  0  0  0 
    3.2488    1.2098   -0.0506 C   0  0  0  0  0  0  0  0  0  0  0  0 
    4.6389    1.1757   -0.1961 C   0  0  0  0  0  0  0  0  0  0  0  0 
    3.2091   -1.1900   -0.0759 C   0  0  0  0  0  0  0  0  0  0  0  0 
    2.5138    0.0242    0.0126 C   0  0  0  0  0  0  0  0  0  0  0  0 
    5.3442   -0.0241   -0.2849 C   0  0  0  0  0  0  0  0  0  0  0  0 
    4.5955   -1.2139   -0.2213 C   0  0  0  0  0  0  0  0  0  0  0  0 
    5.2992   -2.3889   -0.3118 O   0  0  0  0  0  0  0  0  0  0  0  0 
    0.6181    1.0555    0.1618 H   0  0  0  0  0  0  0  0  0  0  0  0 
    0.7077   -0.4244    1.1267 H   0  0  0  0  0  0  0  0  0  0  0  0 
    0.5146   -0.5271   -0.6241 H   0  0  0  0  0  0  0  0  0  0  0  0 
    7.2699    0.9310   -0.4416 H   0  0  0  0  0  0  0  0  0  0  0  0 
    7.1274   -0.5669   -1.3841 H   0  0  0  0  0  0  0  0  0  0  0  0 
    7.3112   -0.6534    0.3605 H   0  0  0  0  0  0  0  0  0  0  0  0 
    2.7361    2.1660    0.0153 H   0  0  0  0  0  0  0  0  0  0  0  0 
    5.1937    2.1103   -0.2438 H   0  0  0  0  0  0  0  0  0  0  0  0 
    2.6608   -2.1314   -0.0308 H   0  0  0  0  0  0  0  0  0  0  0  0 
    4.6763   -3.1298   -0.2520 H   0  0  0  0  0  0  0  0  0  0  0  0 
  1 11  1  0  0  0  0 
  2 13  1  0  0  0  0 
  2  7  1  0  0  0  0 
  2 15  1  0  0  0  0 
  3  6  1  0  0  0  0 
  3 16  1  0  0  0  0 
  4  3  2  0  0  0  0 
  5 18  1  0  0  0  0 
  5  6  2  0  0  0  0 
  6  1  1  0  0  0  0 
  7  8  2  0  0  0  0 
  7  4  1  0  0  0  0 
  8  5  1  0  0  0  0 
  9 19  1  0  0  0  0 
  9  8  1  0  0  0  0 
 10  1  1  0  0  0  0 
 12  1  1  0  0  0  0 
 14  2  1  0  0  0  0 
 17  4  1  0  0  0  0 
M  END 
>  <HBA> 
1 
 
>  <HBD> 
1 
 
>  <TPSA> 
20.23 
 
>  <cid> 
7267 
 
>  <dipole> 
1.39 
 
>  <excitation_energy_1> 
4.945 
 
>  <excitation_energy_2> 
5.047 
 
>  <excitation_energy_3> 
5.669 
 
>  <excitation_energy_4> 
5.681 
 
>  <homo_energy> 
-5.723 
 
>  <homo_lumo_gap> 
5.908 
 
>  <logP> 
2.009 
 
>  <lumo_energy> 
0.185 
 
>  <melting_point> 
52.97 
 
>  <molecular_refractivity> 
38.4 
 
>  <oscillator_strength_1> 
0.0536 
 
>  <oscillator_strength_2> 
0.0002 
 
>  <oscillator_strength_3> 
0.0028 
 
>  <oscillator_strength_4> 
0.0134 
 
>  <open_babel_can_smiles> 
Cc1ccc(c(c1)O)C 
 
>  <mulliken_charges> 
19 
1   -0.531342 
2   -0.513676 
3   -0.185887 
4   -0.19115 
5   -0.244356 
6   0.174985 
7   0.141737 
8   0.298997 
9   -0.646105 
10   0.155779 
11   0.160271 
12   0.158356 
13   0.145986 
14   0.16455 
15   0.165194 
16   0.115478 
17   0.119944 
18   0.1052 
19   0.406039 
 
>  <lowdin_charges> 
19 
1   -0.442284 
2   -0.437117 
3   -0.191789 
4   -0.157495 
5   -0.224962 
6   0.007125 
7   -0.031368 
8   0.09587 
9   -0.384322 
10   0.1565 
11   0.159132 
12   0.159367 
13   0.152989 
14   0.162309 
15   0.163683 
16   0.152845 
17   0.154614 
18   0.147648 
19   0.357256 
 
$$$$ 
 
