PCCDB-ID:  72916 
public computational chemistry database (PCCDB) project, http://pccdb.org 
 
 10 10  0  0  0  0  0  0  0  0999 V2000 
   -0.2799   -1.0969    0.0110 C   0  0  0  0  0  0  0  0  0  0  0  0 
    0.8729    0.6381    0.0111 C   0  0  0  0  0  0  0  0  0  0  0  0 
    0.9877   -0.7268    0.0069 N   0  0  0  0  0  0  0  0  0  0  0  0 
   -1.0954   -0.0325    0.0180 N   0  0  0  0  0  0  0  0  0  0  0  0 
   -0.3484    1.1329    0.0176 N   0  0  0  0  0  0  0  0  0  0  0  0 
   -0.7597   -2.3483    0.0101 O   0  0  0  0  0  0  0  0  0  0  0  0 
    1.9515    1.4406    0.0076 O   0  0  0  0  0  0  0  0  0  0  0  0 
   -2.1032    0.0019    0.0175 H   0  0  0  0  0  0  0  0  0  0  0  0 
    0.0093   -2.9429   -0.0016 H   0  0  0  0  0  0  0  0  0  0  0  0 
    2.7285    0.8587    0.0110 H   0  0  0  0  0  0  0  0  0  0  0  0 
  1  4  1  0  0  0  0 
  2  5  1  0  0  0  0 
  3  1  2  0  0  0  0 
  3  2  2  0  0  0  0 
  5  4  1  0  0  0  0 
  6  1  1  0  0  0  0 
  7 10  1  0  0  0  0 
  7  2  1  0  0  0  0 
  8  4  1  0  0  0  0 
  9  6  1  0  0  0  0 
M  RAD  1   5   2 
M  END 
>  <HBA> 
2 
 
>  <HBD> 
3 
 
>  <TPSA> 
81.51 
 
>  <cid> 
72916 
 
>  <dipole> 
3.2 
 
>  <excitation_energy_1> 
5.384 
 
>  <excitation_energy_2> 
5.86 
 
>  <excitation_energy_3> 
6.161 
 
>  <excitation_energy_4> 
6.619 
 
>  <homo_energy> 
-6.196 
 
>  <homo_lumo_gap> 
7.072 
 
>  <logP> 
-1.609 
 
>  <lumo_energy> 
0.876 
 
>  <melting_point> 
215.02 
 
>  <molecular_refractivity> 
22.03 
 
>  <oscillator_strength_1> 
0.0 
 
>  <oscillator_strength_2> 
0.0005 
 
>  <oscillator_strength_3> 
0.0005 
 
>  <oscillator_strength_4> 
0.0906 
 
>  <open_babel_can_smiles> 
OC1=[N]=C(N[N]1)O 
 
>  <mulliken_charges> 
10 
1   0.72135 
2   0.635214 
3   -0.5614 
4   -0.456808 
5   -0.322038 
6   -0.617307 
7   -0.611967 
8   0.356016 
9   0.434993 
10   0.421946 
 
>  <lowdin_charges> 
10 
1   0.141426 
2   0.116314 
3   -0.283371 
4   -0.145568 
5   -0.193218 
6   -0.346524 
7   -0.348295 
8   0.304542 
9   0.382757 
10   0.371938 
 
$$$$ 
 
