PCCDB-ID:  12500 
public computational chemistry database (PCCDB) project, http://pccdb.org 
 
 19 19  0  0  0  0  0  0  0  0999 V2000 
    0.8526    1.0747   -1.6080 C   0  0  0  0  0  0  0  0  0  0  0  0 
    2.3421    1.2040   -1.7312 C   0  0  0  0  0  0  0  0  0  0  0  0 
    7.5198    0.7478   -0.9892 C   0  0  0  0  0  0  0  0  0  0  0  0 
    6.8414   -0.0789   -0.0935 C   0  0  0  0  0  0  0  0  0  0  0  0 
    6.7880    1.5443   -1.8751 C   0  0  0  0  0  0  0  0  0  0  0  0 
    3.2267    0.6042   -0.9208 C   0  0  0  0  0  0  0  0  0  0  0  0 
    5.4476   -0.1075   -0.0871 C   0  0  0  0  0  0  0  0  0  0  0  0 
    5.3966    1.5139   -1.8674 C   0  0  0  0  0  0  0  0  0  0  0  0 
    4.6949    0.6834   -0.9731 C   0  0  0  0  0  0  0  0  0  0  0  0 
    0.4097    0.6685   -2.5279 H   0  0  0  0  0  0  0  0  0  0  0  0 
    0.3804    2.0529   -1.4412 H   0  0  0  0  0  0  0  0  0  0  0  0 
    0.5723    0.4180   -0.7775 H   0  0  0  0  0  0  0  0  0  0  0  0 
    2.6955    1.8343   -2.5474 H   0  0  0  0  0  0  0  0  0  0  0  0 
    8.6060    0.7743   -0.9977 H   0  0  0  0  0  0  0  0  0  0  0  0 
    7.3966   -0.7017    0.6032 H   0  0  0  0  0  0  0  0  0  0  0  0 
    7.3059    2.1952   -2.5750 H   0  0  0  0  0  0  0  0  0  0  0  0 
    2.8351   -0.0289   -0.1228 H   0  0  0  0  0  0  0  0  0  0  0  0 
    4.9262   -0.7545    0.6150 H   0  0  0  0  0  0  0  0  0  0  0  0 
    4.8496    2.1470   -2.5602 H   0  0  0  0  0  0  0  0  0  0  0  0 
  1 11  1  0  0  0  0 
  1 12  1  0  0  0  0 
  2  1  1  0  0  0  0 
  2  6  2  0  0  0  0 
  3  4  2  0  0  0  0 
  4  7  1  0  0  0  0 
  4 15  1  0  0  0  0 
  5  8  2  0  0  0  0 
  5  3  1  0  0  0  0 
  6 17  1  0  0  0  0 
  7 18  1  0  0  0  0 
  8  9  1  0  0  0  0 
  9  6  1  0  0  0  0 
  9  7  2  0  0  0  0 
 10  1  1  0  0  0  0 
 13  2  1  0  0  0  0 
 14  3  1  0  0  0  0 
 16  5  1  0  0  0  0 
 19  8  1  0  0  0  0 
M  END 
>  <HBA> 
0 
 
>  <HBD> 
0 
 
>  <TPSA> 
0.0 
 
>  <cid> 
12500 
 
>  <dipole> 
0.41 
 
>  <excitation_energy_1> 
4.688 
 
>  <excitation_energy_2> 
4.878 
 
>  <excitation_energy_3> 
5.511 
 
>  <excitation_energy_4> 
5.705 
 
>  <homo_energy> 
-5.791 
 
>  <homo_lumo_gap> 
5.119 
 
>  <logP> 
2.72 
 
>  <lumo_energy> 
-0.672 
 
>  <melting_point> 
26.17 
 
>  <molecular_refractivity> 
41.34 
 
>  <oscillator_strength_1> 
0.2083 
 
>  <oscillator_strength_2> 
0.2507 
 
>  <oscillator_strength_3> 
0.0025 
 
>  <oscillator_strength_4> 
0.2085 
 
>  <open_babel_can_smiles> 
C/C=C/c1ccccc1 
 
>  <mulliken_charges> 
19 
1   -0.489974 
2   -0.093683 
3   -0.13106 
4   -0.128683 
5   -0.129509 
6   -0.169604 
7   -0.197954 
8   -0.184441 
9   0.17721 
10   0.157035 
11   0.157303 
12   0.154906 
13   0.125728 
14   0.127765 
15   0.128349 
16   0.128019 
17   0.117416 
18   0.125659 
19   0.125521 
 
>  <lowdin_charges> 
19 
1   -0.437833 
2   -0.152659 
3   -0.158503 
4   -0.15699 
5   -0.155565 
6   -0.171697 
7   -0.164001 
8   -0.159762 
9   0.000242 
10   0.158144 
11   0.157717 
12   0.156021 
13   0.149677 
14   0.155 
15   0.15848 
16   0.158023 
17   0.150645 
18   0.156178 
19   0.156884 
 
$$$$ 
 
