PCCDB-ID:  11951 
public computational chemistry database (PCCDB) project, http://pccdb.org 
 
 22 23  0  0  0  0  0  0  0  0999 V2000 
    1.2230    1.4120   -0.0394 C   0  0  0  0  0  0  0  0  0  0  0  0 
   -1.2675    1.3679   -0.0067 C   0  0  0  0  0  0  0  0  0  0  0  0 
    2.4244    0.7471   -0.0755 C   0  0  0  0  0  0  0  0  0  0  0  0 
   -2.4450    0.6607   -0.0114 C   0  0  0  0  0  0  0  0  0  0  0  0 
    1.2678   -1.3844   -0.1156 C   0  0  0  0  0  0  0  0  0  0  0  0 
   -1.2152   -1.4285   -0.0830 C   0  0  0  0  0  0  0  0  0  0  0  0 
   -0.0105    0.7117   -0.0436 C   0  0  0  0  0  0  0  0  0  0  0  0 
    0.0143   -0.7215   -0.0864 C   0  0  0  0  0  0  0  0  0  0  0  0 
    2.4594   -0.6771   -0.1140 C   0  0  0  0  0  0  0  0  0  0  0  0 
   -2.4307   -0.7639   -0.0499 C   0  0  0  0  0  0  0  0  0  0  0  0 
    3.6970   -1.3238   -0.2095 N   0  0  0  0  0  0  0  0  0  0  0  0 
   -3.6466   -1.4539   -0.1129 N   0  0  0  0  0  0  0  0  0  0  0  0 
    1.2074    2.4994   -0.0078 H   0  0  0  0  0  0  0  0  0  0  0  0 
   -1.2897    2.4551    0.0251 H   0  0  0  0  0  0  0  0  0  0  0  0 
    3.3606    1.3007   -0.0853 H   0  0  0  0  0  0  0  0  0  0  0  0 
   -3.4002    1.1808    0.0038 H   0  0  0  0  0  0  0  0  0  0  0  0 
    1.2863   -2.4725   -0.1476 H   0  0  0  0  0  0  0  0  0  0  0  0 
   -1.1959   -2.5165   -0.1150 H   0  0  0  0  0  0  0  0  0  0  0  0 
    4.4688   -0.8222    0.2132 H   0  0  0  0  0  0  0  0  0  0  0  0 
    3.6890   -2.2941    0.0810 H   0  0  0  0  0  0  0  0  0  0  0  0 
   -4.4245   -0.9795    0.3295 H   0  0  0  0  0  0  0  0  0  0  0  0 
   -3.5970   -2.4231    0.1773 H   0  0  0  0  0  0  0  0  0  0  0  0 
  1 13  1  0  0  0  0 
  2 14  1  0  0  0  0 
  3  1  2  0  0  0  0 
  4  2  1  0  0  0  0 
  4 16  1  0  0  0  0 
  5  9  2  0  0  0  0 
  5  8  1  0  0  0  0 
  6 10  1  0  0  0  0 
  7  1  1  0  0  0  0 
  7  2  2  0  0  0  0 
  8  6  2  0  0  0  0 
  8  7  1  0  0  0  0 
  9  3  1  0  0  0  0 
 10  4  2  0  0  0  0 
 11  9  1  0  0  0  0 
 11 20  1  0  0  0  0 
 11 19  1  0  0  0  0 
 12 10  1  0  0  0  0 
 12 22  1  0  0  0  0 
 12 21  1  0  0  0  0 
 15  3  1  0  0  0  0 
 17  5  1  0  0  0  0 
 18  6  1  0  0  0  0 
M  END 
>  <HBA> 
2 
 
>  <HBD> 
2 
 
>  <TPSA> 
52.04 
 
>  <cid> 
11951 
 
>  <dipole> 
2.46 
 
>  <excitation_energy_1> 
3.976 
 
>  <excitation_energy_2> 
3.989 
 
>  <excitation_energy_3> 
4.509 
 
>  <excitation_energy_4> 
4.592 
 
>  <homo_energy> 
-4.972 
 
>  <homo_lumo_gap> 
4.498 
 
>  <logP> 
3.167 
 
>  <lumo_energy> 
-0.473 
 
>  <melting_point> 
147.97 
 
>  <molecular_refractivity> 
52.76 
 
>  <oscillator_strength_1> 
0.0439 
 
>  <oscillator_strength_2> 
0.0222 
 
>  <oscillator_strength_3> 
0.011 
 
>  <oscillator_strength_4> 
0.0051 
 
>  <open_babel_can_smiles> 
Nc1ccc2c(c1)cc(cc2)N 
 
>  <mulliken_charges> 
22 
1   -0.201966 
2   -0.202031 
3   -0.175934 
4   -0.17578 
5   -0.26604 
6   -0.266083 
7   0.133577 
8   0.147377 
9   0.312672 
10   0.31265 
11   -0.789492 
12   -0.789609 
13   0.124083 
14   0.124055 
15   0.114698 
16   0.11464 
17   0.106301 
18   0.106332 
19   0.317355 
20   0.317896 
21   0.31738 
22   0.317917 
 
>  <lowdin_charges> 
22 
1   -0.142241 
2   -0.142264 
3   -0.20168 
4   -0.201408 
5   -0.221839 
6   -0.221792 
7   -0.032703 
8   0.021697 
9   0.060305 
10   0.060049 
11   -0.488045 
12   -0.48783 
13   0.153111 
14   0.153106 
15   0.152489 
16   0.152272 
17   0.145946 
18   0.145949 
19   0.274931 
20   0.272513 
21   0.274888 
22   0.272546 
 
$$$$ 
 
