PCCDB-ID:  15172 
public computational chemistry database (PCCDB) project, http://pccdb.org 
 
 23 23  0  0  1  0  0  0  0  0999 V2000 
    1.1186    1.8145    1.7218 C   0  0  0  0  0  0  0  0  0  0  0  0 
    5.6476   -3.4080    3.9389 C   0  0  0  0  0  0  0  0  0  0  0  0 
    4.7637   -2.7236    4.7732 C   0  0  0  0  0  0  0  0  0  0  0  0 
    5.7070   -3.0766    2.5817 C   0  0  0  0  0  0  0  0  0  0  0  0 
    3.9480   -1.7199    4.2526 C   0  0  0  0  0  0  0  0  0  0  0  0 
    4.8921   -2.0745    2.0640 C   0  0  0  0  0  0  0  0  0  0  0  0 
    2.9548    0.1126    1.1354 C   0  0  0  0  0  0  0  0  0  0  0  0 
    3.1004   -0.3117    2.4003 C   0  0  0  0  0  0  0  0  0  0  0  0 
    2.0170    1.1919    0.6530 C   0  0  1  0  0  0  0  0  0  0  0  0 
    3.9913   -1.3764    2.8899 C   0  0  0  0  0  0  0  0  0  0  0  0 
    1.2365    0.6942   -0.4469 O   0  0  0  0  0  0  0  0  0  0  0  0 
    1.7034    2.3111    2.5042 H   0  0  0  0  0  0  0  0  0  0  0  0 
    0.4873    1.0540    2.1982 H   0  0  0  0  0  0  0  0  0  0  0  0 
    0.4640    2.5567    1.2558 H   0  0  0  0  0  0  0  0  0  0  0  0 
    6.2869   -4.1902    4.3394 H   0  0  0  0  0  0  0  0  0  0  0  0 
    4.7083   -2.9699    5.8303 H   0  0  0  0  0  0  0  0  0  0  0  0 
    6.3950   -3.6018    1.9242 H   0  0  0  0  0  0  0  0  0  0  0  0 
    3.2602   -1.1910    4.9089 H   0  0  0  0  0  0  0  0  0  0  0  0 
    4.9588   -1.8292    1.0081 H   0  0  0  0  0  0  0  0  0  0  0  0 
    3.5246   -0.3487    0.3293 H   0  0  0  0  0  0  0  0  0  0  0  0 
    2.5072    0.1658    3.1792 H   0  0  0  0  0  0  0  0  0  0  0  0 
    2.6177    1.9902    0.1961 H   0  0  0  0  0  0  0  0  0  0  0  0 
    0.7639   -0.0891   -0.1199 H   0  0  0  0  0  0  0  0  0  0  0  0 
  1 13  1  0  0  0  0 
  1 12  1  0  0  0  0 
  2 15  1  0  0  0  0 
  2  3  2  0  0  0  0 
  3 16  1  0  0  0  0 
  4  2  1  0  0  0  0 
  5  3  1  0  0  0  0 
  5 18  1  0  0  0  0 
  6  4  2  0  0  0  0 
  6 10  1  0  0  0  0 
  7  8  2  0  0  0  0 
  8 10  1  0  0  0  0 
  8 21  1  0  0  0  0 
  9 22  1  6  0  0  0 
  9  7  1  0  0  0  0 
  9  1  1  0  0  0  0 
 10  5  2  0  0  0  0 
 11 23  1  0  0  0  0 
 11  9  1  0  0  0  0 
 14  1  1  0  0  0  0 
 17  4  1  0  0  0  0 
 19  6  1  0  0  0  0 
 20  7  1  0  0  0  0 
M  END 
>  <HBA> 
1 
 
>  <HBD> 
1 
 
>  <TPSA> 
20.23 
 
>  <cid> 
15172 
 
>  <dipole> 
1.66 
 
>  <excitation_energy_1> 
4.67 
 
>  <excitation_energy_2> 
4.82 
 
>  <excitation_energy_3> 
5.579 
 
>  <excitation_energy_4> 
5.646 
 
>  <homo_energy> 
-6.008 
 
>  <homo_lumo_gap> 
5.072 
 
>  <logP> 
2.081 
 
>  <lumo_energy> 
-0.936 
 
>  <melting_point> 
44.13 
 
>  <molecular_refractivity> 
47.31 
 
>  <oscillator_strength_1> 
0.3838 
 
>  <oscillator_strength_2> 
0.1307 
 
>  <oscillator_strength_3> 
0.0123 
 
>  <oscillator_strength_4> 
0.0349 
 
>  <open_babel_can_smiles> 
C[C@@H](/C=C/c1ccccc1)O 
 
>  <mulliken_charges> 
23 
1   -0.460918 
2   -0.129 
3   -0.128874 
4   -0.131023 
5   -0.197101 
6   -0.180964 
7   -0.154948 
8   -0.173311 
9   0.103791 
10   0.178333 
11   -0.617981 
12   0.147986 
13   0.138371 
14   0.161352 
15   0.130585 
16   0.130715 
17   0.131324 
18   0.127154 
19   0.130706 
20   0.136506 
21   0.127699 
22   0.14702 
23   0.38258 
 
>  <lowdin_charges> 
23 
1   -0.464315 
2   -0.157337 
3   -0.153611 
4   -0.15489 
5   -0.162491 
6   -0.153931 
7   -0.183737 
8   -0.165851 
9   0.001966 
10   -0.002267 
11   -0.465131 
12   0.155966 
13   0.148041 
14   0.163332 
15   0.159297 
16   0.156753 
17   0.15974 
18   0.156887 
19   0.156498 
20   0.157323 
21   0.156609 
22   0.151931 
23   0.339219 
 
$$$$ 
 
