PCCDB-ID:  38008 
public computational chemistry database (PCCDB) project, http://pccdb.org 
 
 32 34  0  0  0  0  0  0  0  0999 V2000 
    0.9715    0.1043   -0.0307 C   0  0  0  0  0  0  0  0  0  0  0  0 
    2.7256   -5.2408   -0.1435 C   0  0  0  0  0  0  0  0  0  0  0  0 
    5.4698   -2.8385   -0.0822 C   0  0  0  0  0  0  0  0  0  0  0  0 
    5.7444   -1.4791   -0.0585 C   0  0  0  0  0  0  0  0  0  0  0  0 
    3.0056    2.6793    0.0083 C   0  0  0  0  0  0  0  0  0  0  0  0 
    4.1973    3.4649    0.5720 C   0  0  0  0  0  0  0  0  0  0  0  0 
    3.0607   -2.4352   -0.0885 C   0  0  0  0  0  0  0  0  0  0  0  0 
    5.7611    1.6631    0.2247 C   0  0  0  0  0  0  0  0  0  0  0  0 
    2.4708    0.1083   -0.0198 C   0  0  0  0  0  0  0  0  0  0  0  0 
    4.1389   -3.3160   -0.0998 C   0  0  0  0  0  0  0  0  0  0  0  0 
    3.3226   -1.0515   -0.0570 C   0  0  0  0  0  0  0  0  0  0  0  0 
    3.3023    1.2070    0.0013 C   0  0  0  0  0  0  0  0  0  0  0  0 
    4.6632   -0.5906   -0.0548 C   0  0  0  0  0  0  0  0  0  0  0  0 
    5.4054    3.0273   -0.1351 N   0  0  0  0  0  0  0  0  0  0  0  0 
    4.6303    0.7934   -0.0477 N   0  0  0  0  0  0  0  0  0  0  0  0 
    4.0258   -4.6850   -0.1278 O   0  0  0  0  0  0  0  0  0  0  0  0 
    0.5668   -0.2593   -0.9856 H   0  0  0  0  0  0  0  0  0  0  0  0 
    0.5632    1.1075    0.1324 H   0  0  0  0  0  0  0  0  0  0  0  0 
    0.5656   -0.5466    0.7552 H   0  0  0  0  0  0  0  0  0  0  0  0 
    2.8596   -6.3245   -0.1667 H   0  0  0  0  0  0  0  0  0  0  0  0 
    2.1598   -4.9276   -1.0323 H   0  0  0  0  0  0  0  0  0  0  0  0 
    2.1545   -4.9664    0.7547 H   0  0  0  0  0  0  0  0  0  0  0  0 
    6.2718   -3.5697   -0.0870 H   0  0  0  0  0  0  0  0  0  0  0  0 
    6.7731   -1.1296   -0.0444 H   0  0  0  0  0  0  0  0  0  0  0  0 
    2.8166    3.0299   -1.0159 H   0  0  0  0  0  0  0  0  0  0  0  0 
    2.1017    2.8839    0.5932 H   0  0  0  0  0  0  0  0  0  0  0  0 
    4.2649    3.3080    1.6658 H   0  0  0  0  0  0  0  0  0  0  0  0 
    4.0598    4.5365    0.3972 H   0  0  0  0  0  0  0  0  0  0  0  0 
    2.0375   -2.7935   -0.0986 H   0  0  0  0  0  0  0  0  0  0  0  0 
    6.0467    1.5576    1.2919 H   0  0  0  0  0  0  0  0  0  0  0  0 
    6.6133    1.3428   -0.3856 H   0  0  0  0  0  0  0  0  0  0  0  0 
    6.1890    3.6370    0.0857 H   0  0  0  0  0  0  0  0  0  0  0  0 
  1  9  1  0  0  0  0 
  1 18  1  0  0  0  0 
  1 19  1  0  0  0  0 
  2 16  1  0  0  0  0 
  2 22  1  0  0  0  0 
  3  4  2  0  0  0  0 
  4 13  1  0  0  0  0 
  4 24  1  0  0  0  0 
  5  6  1  0  0  0  0 
  5 26  1  0  0  0  0 
  6 27  1  0  0  0  0 
  7 11  1  0  0  0  0 
  8 30  1  0  0  0  0 
  9 12  2  0  0  0  0 
 10  7  2  0  0  0  0 
 10  3  1  0  0  0  0 
 11 13  2  0  0  0  0 
 11  9  1  0  0  0  0 
 12  5  1  0  0  0  0 
 13 15  1  0  0  0  0 
 14 32  1  0  0  0  0 
 14  8  1  0  0  0  0 
 14  6  1  0  0  0  0 
 15 12  1  0  0  0  0 
 15  8  1  0  0  0  0 
 16 10  1  0  0  0  0 
 17  1  1  0  0  0  0 
 20  2  1  0  0  0  0 
 21  2  1  0  0  0  0 
 23  3  1  0  0  0  0 
 25  5  1  0  0  0  0 
 28  6  1  0  0  0  0 
 29  7  1  0  0  0  0 
 31  8  1  0  0  0  0 
M  END 
>  <HBA> 
3 
 
>  <HBD> 
1 
 
>  <TPSA> 
26.19 
 
>  <cid> 
38008 
 
>  <dipole> 
2.7 
 
>  <excitation_energy_1> 
4.269 
 
>  <excitation_energy_2> 
4.449 
 
>  <excitation_energy_3> 
4.487 
 
>  <excitation_energy_4> 
4.643 
 
>  <homo_energy> 
-4.966 
 
>  <homo_lumo_gap> 
5.026 
 
>  <logP> 
2.39 
 
>  <lumo_energy> 
0.06 
 
>  <melting_point> 
115.7 
 
>  <molecular_refractivity> 
69.03 
 
>  <oscillator_strength_1> 
0.0678 
 
>  <oscillator_strength_2> 
0.0855 
 
>  <oscillator_strength_3> 
0.0338 
 
>  <oscillator_strength_4> 
0.036 
 
>  <open_babel_can_smiles> 
COc1ccc2c(c1)c(C)c1n2CNCC1 
 
>  <mulliken_charges> 
32 
1   -0.535256 
2   -0.2058 
3   -0.19544 
4   -0.1732 
5   -0.31234 
6   -0.159349 
7   -0.295198 
8   0.018496 
9   0.029492 
10   0.373396 
11   0.069544 
12   0.278798 
13   0.30857 
14   -0.5586 
15   -0.589103 
16   -0.51695 
17   0.155431 
18   0.146249 
19   0.152358 
20   0.162295 
21   0.14591 
22   0.145099 
23   0.128883 
24   0.122266 
25   0.167521 
26   0.149827 
27   0.12455 
28   0.145337 
29   0.12112 
30   0.131057 
31   0.158078 
32   0.306958 
 
>  <lowdin_charges> 
32 
1   -0.438684 
2   -0.277007 
3   -0.190927 
4   -0.179347 
5   -0.27788 
6   -0.198989 
7   -0.22675 
8   -0.118324 
9   -0.07681 
10   0.09125 
11   -0.022233 
12   0.015294 
13   0.013699 
14   -0.362468 
15   -0.045311 
16   -0.20972 
17   0.154662 
18   0.153247 
19   0.155053 
20   0.156406 
21   0.141967 
22   0.141473 
23   0.164276 
24   0.154744 
25   0.160775 
26   0.157617 
27   0.120053 
28   0.14897 
29   0.158543 
30   0.117929 
31   0.15472 
32   0.263773 
 
$$$$ 
 
