PCCDB-ID:  20237 
public computational chemistry database (PCCDB) project, http://pccdb.org 
 
 14 13  0  0  0  0  0  0  0  0999 V2000 
    0.5630   -0.8263   -0.1258 C   0  0  0  0  0  0  0  0  0  0  0  0 
    2.8676   -0.5207   -0.8749 C   0  0  0  0  0  0  0  0  0  0  0  0 
    2.8324   -1.1413   -1.9945 N   0  0  0  0  0  0  0  0  0  0  0  0 
    1.8737   -0.2187    0.0070 N   0  0  0  0  0  0  0  0  0  0  0  0 
    4.1609    0.0247   -0.5776 N   0  0  0  0  0  0  0  0  0  0  0  0 
    4.7386    0.1081    0.6771 N   0  0  0  0  0  0  0  0  0  0  0  0 
    4.0008    0.2034    1.6616 O   0  0  0  0  0  0  0  0  0  0  0  0 
    5.9624    0.1390    0.6900 O   0  0  0  0  0  0  0  0  0  0  0  0 
   -0.0506   -0.5103    0.7200 H   0  0  0  0  0  0  0  0  0  0  0  0 
    0.6086   -1.9246   -0.1362 H   0  0  0  0  0  0  0  0  0  0  0  0 
    0.0688   -0.4891   -1.0448 H   0  0  0  0  0  0  0  0  0  0  0  0 
    1.8880   -1.4399   -2.2349 H   0  0  0  0  0  0  0  0  0  0  0  0 
    2.1790    0.0959    0.9196 H   0  0  0  0  0  0  0  0  0  0  0  0 
    4.8595   -0.2383   -1.2654 H   0  0  0  0  0  0  0  0  0  0  0  0 
  1  4  1  0  0  0  0 
  1  9  1  0  0  0  0 
  2  5  1  0  0  0  0 
  2  4  1  0  0  0  0 
  3  2  2  0  0  0  0 
  4 13  1  0  0  0  0 
  5  6  1  0  0  0  0 
  6  8  2  0  0  0  0 
  6  7  2  0  0  0  0 
 10  1  1  0  0  0  0 
 11  1  1  0  0  0  0 
 12  3  1  0  0  0  0 
 14  5  1  0  0  0  0 
M  END 
>  <HBA> 
3 
 
>  <HBD> 
2 
 
>  <TPSA> 
96.23 
 
>  <cid> 
20237 
 
>  <dipole> 
3.62 
 
>  <excitation_energy_1> 
3.99 
 
>  <excitation_energy_2> 
4.533 
 
>  <excitation_energy_3> 
5.08 
 
>  <excitation_energy_4> 
5.365 
 
>  <homo_energy> 
-6.757 
 
>  <homo_lumo_gap> 
4.887 
 
>  <logP> 
0.327 
 
>  <lumo_energy> 
-1.869 
 
>  <melting_point> 
106.14 
 
>  <molecular_refractivity> 
29.03 
 
>  <oscillator_strength_1> 
0.0108 
 
>  <oscillator_strength_2> 
0.0011 
 
>  <oscillator_strength_3> 
0.0249 
 
>  <oscillator_strength_4> 
0.0605 
 
>  <open_babel_can_smiles> 
CNC(=N)NN(=O)=O 
 
>  <mulliken_charges> 
14 
1   -0.321941 
2   0.639911 
3   -0.653716 
4   -0.592605 
5   -0.440532 
6   0.626623 
7   -0.426396 
8   -0.388428 
9   0.173865 
10   0.168007 
11   0.172326 
12   0.296099 
13   0.371537 
14   0.37525 
 
>  <lowdin_charges> 
14 
1   -0.350823 
2   0.129841 
3   -0.456804 
4   -0.294492 
5   -0.206941 
6   0.341144 
7   -0.273981 
8   -0.242416 
9   0.170323 
10   0.149341 
11   0.15742 
12   0.262707 
13   0.298803 
14   0.315878 
 
$$$$ 
 
