PCCDB-ID:  53286 
public computational chemistry database (PCCDB) project, http://pccdb.org 
 
 16 15  0  0  0  0  0  0  0  0999 V2000 
    4.5184   -1.8506    1.8938 C   0  0  0  0  0  0  0  0  0  0  0  0 
    4.1382   -1.1438    0.9914 C   0  0  0  0  0  0  0  0  0  0  0  0 
    6.7380   -0.9381   -2.9386 C   0  0  0  0  0  0  0  0  0  0  0  0 
    3.6942   -0.2937   -0.1052 C   0  0  0  0  0  0  0  0  0  0  0  0 
    6.0486   -0.8094   -1.5802 C   0  0  0  0  0  0  0  0  0  0  0  0 
    6.5497    0.2744   -3.7389 N   0  0  0  0  0  0  0  0  0  0  0  0 
    4.2169   -0.8802   -1.7780 S   0  0  0  0  0  0  0  0  0  0  0  0 
    4.8514   -2.4778    2.6894 H   0  0  0  0  0  0  0  0  0  0  0  0 
    6.4043   -1.8716   -3.4279 H   0  0  0  0  0  0  0  0  0  0  0  0 
    7.8135   -1.0516   -2.7527 H   0  0  0  0  0  0  0  0  0  0  0  0 
    4.0494    0.7341    0.0347 H   0  0  0  0  0  0  0  0  0  0  0  0 
    2.6000   -0.2562   -0.1499 H   0  0  0  0  0  0  0  0  0  0  0  0 
    6.3161    0.1535   -1.1323 H   0  0  0  0  0  0  0  0  0  0  0  0 
    6.3576   -1.6166   -0.9098 H   0  0  0  0  0  0  0  0  0  0  0  0 
    5.5595    0.3956   -3.9471 H   0  0  0  0  0  0  0  0  0  0  0  0 
    7.0216    0.1703   -4.6355 H   0  0  0  0  0  0  0  0  0  0  0  0 
  1  8  1  0  0  0  0 
  2  1  3  0  0  0  0 
  3 10  1  0  0  0  0 
  3  5  1  0  0  0  0 
  4 11  1  0  0  0  0 
  4  2  1  0  0  0  0 
  5 13  1  0  0  0  0 
  5 14  1  0  0  0  0 
  6  3  1  0  0  0  0 
  7  5  1  0  0  0  0 
  7  4  1  0  0  0  0 
  9  3  1  0  0  0  0 
 12  4  1  0  0  0  0 
 15  6  1  0  0  0  0 
 16  6  1  0  0  0  0 
M  END 
>  <HBA> 
2 
 
>  <HBD> 
1 
 
>  <TPSA> 
51.32 
 
>  <cid> 
53286 
 
>  <dipole> 
0.65 
 
>  <excitation_energy_1> 
4.892 
 
>  <excitation_energy_2> 
5.518 
 
>  <excitation_energy_3> 
5.586 
 
>  <excitation_energy_4> 
5.709 
 
>  <homo_energy> 
-6.098 
 
>  <homo_lumo_gap> 
6.365 
 
>  <logP> 
1.012 
 
>  <lumo_energy> 
0.267 
 
>  <melting_point> 
54.67 
 
>  <molecular_refractivity> 
34.61 
 
>  <oscillator_strength_1> 
0.0029 
 
>  <oscillator_strength_2> 
0.0239 
 
>  <oscillator_strength_3> 
0.0083 
 
>  <oscillator_strength_4> 
0.0024 
 
>  <open_babel_can_smiles> 
NCCSCC#C 
 
>  <mulliken_charges> 
16 
1   -0.472893 
2   0.363779 
3   -0.148458 
4   -0.574519 
5   -0.39853 
6   -0.716843 
7   0.091897 
8   0.191817 
9   0.132411 
10   0.151103 
11   0.203089 
12   0.206112 
13   0.180077 
14   0.181459 
15   0.311862 
16   0.297636 
 
>  <lowdin_charges> 
16 
1   -0.246828 
2   -0.045081 
3   -0.203066 
4   -0.355618 
5   -0.375384 
6   -0.558711 
7   0.092604 
8   0.207111 
9   0.126844 
10   0.148626 
11   0.178495 
12   0.188101 
13   0.163769 
14   0.165328 
15   0.258213 
16   0.255596 
 
$$$$ 
 
