PCCDB-ID:  61874 
public computational chemistry database (PCCDB) project, http://pccdb.org 
 
 21 20  0  0  0  0  0  0  0  0999 V2000 
    0.6536   -1.8950   -1.1111 C   0  0  0  0  0  0  0  0  0  0  0  0 
    2.1825   -1.9830   -1.1278 C   0  0  0  0  0  0  0  0  0  0  0  0 
    2.8512   -0.6509   -1.5268 C   0  0  0  0  0  0  0  0  0  0  0  0 
    4.3481   -0.7154   -1.4927 C   0  0  0  0  0  0  0  0  0  0  0  0 
    5.1636   -0.5224   -2.5470 C   0  0  0  0  0  0  0  0  0  0  0  0 
    6.6056   -0.6060   -2.4665 C   0  0  0  0  0  0  0  0  0  0  0  0 
    7.4601   -0.4157   -3.4968 C   0  0  0  0  0  0  0  0  0  0  0  0 
    8.9076   -0.5218   -3.3116 C   0  0  0  0  0  0  0  0  0  0  0  0 
    9.7342   -0.3623   -4.1933 O   0  0  0  0  0  0  0  0  0  0  0  0 
    0.2056   -2.8530   -0.8248 H   0  0  0  0  0  0  0  0  0  0  0  0 
    0.2602   -1.6251   -2.0987 H   0  0  0  0  0  0  0  0  0  0  0  0 
    0.3072   -1.1374   -0.3976 H   0  0  0  0  0  0  0  0  0  0  0  0 
    2.5042   -2.7674   -1.8249 H   0  0  0  0  0  0  0  0  0  0  0  0 
    2.5452   -2.2865   -0.1360 H   0  0  0  0  0  0  0  0  0  0  0  0 
    2.5083    0.1302   -0.8301 H   0  0  0  0  0  0  0  0  0  0  0  0 
    2.5120   -0.3498   -2.5266 H   0  0  0  0  0  0  0  0  0  0  0  0 
    4.7964   -0.9504   -0.5249 H   0  0  0  0  0  0  0  0  0  0  0  0 
    4.7341   -0.2882   -3.5213 H   0  0  0  0  0  0  0  0  0  0  0  0 
    7.0248   -0.8427   -1.4862 H   0  0  0  0  0  0  0  0  0  0  0  0 
    7.1071   -0.1768   -4.4979 H   0  0  0  0  0  0  0  0  0  0  0  0 
    9.2242   -0.7679   -2.2713 H   0  0  0  0  0  0  0  0  0  0  0  0 
  1 10  1  0  0  0  0 
  1 12  1  0  0  0  0 
  2  1  1  0  0  0  0 
  2 14  1  0  0  0  0 
  3  4  1  0  0  0  0 
  3  2  1  0  0  0  0 
  3 15  1  0  0  0  0 
  4 17  1  0  0  0  0 
  5  6  1  0  0  0  0 
  5  4  2  0  0  0  0 
  6 19  1  0  0  0  0 
  7  8  1  0  0  0  0 
  7  6  2  0  0  0  0 
  8 21  1  0  0  0  0 
  9  8  2  0  0  0  0 
 11  1  1  0  0  0  0 
 13  2  1  0  0  0  0 
 16  3  1  0  0  0  0 
 18  5  1  0  0  0  0 
 20  7  1  0  0  0  0 
M  END 
>  <HBA> 
1 
 
>  <HBD> 
0 
 
>  <TPSA> 
17.07 
 
>  <cid> 
61874 
 
>  <dipole> 
5.09 
 
>  <excitation_energy_1> 
3.429 
 
>  <excitation_energy_2> 
4.695 
 
>  <excitation_energy_3> 
6.071 
 
>  <excitation_energy_4> 
6.085 
 
>  <homo_energy> 
-6.531 
 
>  <homo_lumo_gap> 
4.607 
 
>  <logP> 
2.098 
 
>  <lumo_energy> 
-1.924 
 
>  <melting_point> 
23.41 
 
>  <molecular_refractivity> 
39.82 
 
>  <oscillator_strength_1> 
0.0001 
 
>  <oscillator_strength_2> 
1.0065 
 
>  <oscillator_strength_3> 
0.001 
 
>  <oscillator_strength_4> 
0.0006 
 
>  <open_babel_can_smiles> 
CCC/C=C/C=C/C=O 
 
>  <mulliken_charges> 
21 
1   -0.443006 
2   -0.251745 
3   -0.3054 
4   -0.09357 
5   -0.109445 
6   -0.098237 
7   -0.170222 
8   0.227451 
9   -0.42241 
10   0.149718 
11   0.146607 
12   0.145235 
13   0.145515 
14   0.137386 
15   0.150707 
16   0.145224 
17   0.134192 
18   0.133658 
19   0.138558 
20   0.146655 
21   0.093129 
 
>  <lowdin_charges> 
21 
1   -0.444862 
2   -0.270287 
3   -0.272611 
4   -0.124303 
5   -0.168676 
6   -0.108376 
7   -0.201942 
8   0.039988 
9   -0.238672 
10   0.153923 
11   0.148843 
12   0.149359 
13   0.147269 
14   0.141978 
15   0.155233 
16   0.148908 
17   0.153514 
18   0.157514 
19   0.158114 
20   0.166416 
21   0.10867 
 
$$$$ 
 
