PCCDB-ID:  10666 
public computational chemistry database (PCCDB) project, http://pccdb.org 
 
 20 20  0  0  0  0  0  0  0  0999 V2000 
    0.9579    0.0121   -0.0577 C   0  0  0  0  0  0  0  0  0  0  0  0 
    7.4616    1.1373    0.1594 C   0  0  0  0  0  0  0  0  0  0  0  0 
    4.5304   -1.0589   -0.0949 C   0  0  0  0  0  0  0  0  0  0  0  0 
    3.1701   -1.0819   -0.1218 C   0  0  0  0  0  0  0  0  0  0  0  0 
    5.0169    2.6756    0.2581 C   0  0  0  0  0  0  0  0  0  0  0  0 
    4.4715    1.3639    0.1293 C   0  0  0  0  0  0  0  0  0  0  0  0 
    5.2144    0.1865    0.0324 C   0  0  0  0  0  0  0  0  0  0  0  0 
    3.0049    1.3330    0.1018 C   0  0  0  0  0  0  0  0  0  0  0  0 
    5.4379    3.7560    0.3640 N   0  0  0  0  0  0  0  0  0  0  0  0 
    2.4209    0.0492   -0.0293 N   0  0  0  0  0  0  0  0  0  0  0  0 
    2.2804    2.3171    0.1830 O   0  0  0  0  0  0  0  0  0  0  0  0 
    6.5480    0.0370    0.0431 O   0  0  0  0  0  0  0  0  0  0  0  0 
    0.6324   -1.0246   -0.1603 H   0  0  0  0  0  0  0  0  0  0  0  0 
    0.5869    0.6064   -0.8960 H   0  0  0  0  0  0  0  0  0  0  0  0 
    0.5569    0.4420    0.8632 H   0  0  0  0  0  0  0  0  0  0  0  0 
    8.4502    0.6770    0.1316 H   0  0  0  0  0  0  0  0  0  0  0  0 
    7.3232    1.6673    1.1043 H   0  0  0  0  0  0  0  0  0  0  0  0 
    7.3504    1.8334   -0.6747 H   0  0  0  0  0  0  0  0  0  0  0  0 
    5.1094   -1.9697   -0.1705 H   0  0  0  0  0  0  0  0  0  0  0  0 
    2.6178   -2.0104   -0.2178 H   0  0  0  0  0  0  0  0  0  0  0  0 
  1 10  1  0  0  0  0 
  1 15  1  0  0  0  0 
  2 17  1  0  0  0  0 
  3  7  1  0  0  0  0 
  4  3  2  0  0  0  0 
  4 10  1  0  0  0  0 
  5  9  3  0  0  0  0 
  6  5  1  0  0  0  0 
  7 12  1  0  0  0  0 
  7  6  2  0  0  0  0 
  8  6  1  0  0  0  0 
  8 11  2  0  0  0  0 
 10  8  1  0  0  0  0 
 12  2  1  0  0  0  0 
 13  1  1  0  0  0  0 
 14  1  1  0  0  0  0 
 16  2  1  0  0  0  0 
 18  2  1  0  0  0  0 
 19  3  1  0  0  0  0 
 20  4  1  0  0  0  0 
M  END 
>  <HBA> 
4 
 
>  <HBD> 
0 
 
>  <TPSA> 
55.02 
 
>  <cid> 
10666 
 
>  <dipole> 
6.82 
 
>  <excitation_energy_1> 
4.168 
 
>  <excitation_energy_2> 
4.726 
 
>  <excitation_energy_3> 
5.107 
 
>  <excitation_energy_4> 
5.481 
 
>  <homo_energy> 
-6.229 
 
>  <homo_lumo_gap> 
4.697 
 
>  <logP> 
0.266 
 
>  <lumo_energy> 
-1.532 
 
>  <melting_point> 
85.77 
 
>  <molecular_refractivity> 
43.17 
 
>  <oscillator_strength_1> 
0.1514 
 
>  <oscillator_strength_2> 
0.0 
 
>  <oscillator_strength_3> 
0.0519 
 
>  <oscillator_strength_4> 
0.0106 
 
>  <open_babel_can_smiles> 
N#Cc1c(OC)ccn(c1=O)C 
 
>  <mulliken_charges> 
20 
1   -0.314332 
2   -0.238559 
3   -0.244214 
4   0.103436 
5   0.276208 
6   -0.052151 
7   0.418461 
8   0.60326 
9   -0.502208 
10   -0.470255 
11   -0.519233 
12   -0.502489 
13   0.158033 
14   0.197049 
15   0.197133 
16   0.17592 
17   0.189378 
18   0.189528 
19   0.161895 
20   0.173144 
 
>  <lowdin_charges> 
20 
1   -0.340734 
2   -0.276759 
3   -0.231786 
4   -0.063657 
5   -0.005748 
6   -0.139226 
7   0.152149 
8   0.164102 
9   -0.132496 
10   -0.032903 
11   -0.298978 
12   -0.170207 
13   0.158058 
14   0.177428 
15   0.176999 
16   0.166282 
17   0.16878 
18   0.169509 
19   0.183639 
20   0.175548 
 
$$$$ 
 
