PCCDB-ID:  27021 
public computational chemistry database (PCCDB) project, http://pccdb.org 
 
 38 40  0  0  1  0  0  0  0  0999 V2000 
    0.7367   -0.4638    0.0684 C   0  0  0  0  0  0  0  0  0  0  0  0 
    2.7116   -0.0341    1.5128 C   0  0  0  0  0  0  0  0  0  0  0  0 
    2.0277    2.5264   -0.3687 C   0  0  0  0  0  0  0  0  0  0  0  0 
    9.8212   -0.0747   -0.7685 C   0  0  0  0  0  0  0  0  0  0  0  0 
    9.3725   -1.3969   -0.7563 C   0  0  0  0  0  0  0  0  0  0  0  0 
    8.8919    0.9679   -0.7933 C   0  0  0  0  0  0  0  0  0  0  0  0 
    8.0070   -1.6650   -0.7691 C   0  0  0  0  0  0  0  0  0  0  0  0 
    7.5242    0.7051   -0.8051 C   0  0  0  0  0  0  0  0  0  0  0  0 
    2.5271   -0.7946   -2.2664 C   0  0  0  0  0  0  0  0  0  0  0  0 
    2.2093    0.7301   -2.2429 C   0  0  0  0  0  0  0  0  0  0  0  0 
    5.6432   -1.0201   -0.8093 C   0  0  0  0  0  0  0  0  0  0  0  0 
    7.0532   -0.6240   -0.7934 C   0  0  0  0  0  0  0  0  0  0  0  0 
    4.4666   -0.3465   -0.8097 C   0  0  0  0  0  0  0  0  0  0  0  0 
    3.1081   -1.0383   -0.8447 C   0  0  1  0  0  0  0  0  0  0  0  0 
    4.1217    1.1112   -0.7865 C   0  0  0  0  0  0  0  0  0  0  0  0 
    2.2314   -0.1029    0.0518 C   0  0  0  0  0  0  0  0  0  0  0  0 
    2.5834    1.1770   -0.7885 C   0  0  1  0  0  0  0  0  0  0  0  0 
    4.8529    2.0900   -0.7927 O   0  0  0  0  0  0  0  0  0  0  0  0 
    0.5918   -1.4446    0.5379 H   0  0  0  0  0  0  0  0  0  0  0  0 
    0.2809   -0.5028   -0.9239 H   0  0  0  0  0  0  0  0  0  0  0  0 
    0.1732    0.2664    0.6611 H   0  0  0  0  0  0  0  0  0  0  0  0 
    2.5635   -1.0024    2.0059 H   0  0  0  0  0  0  0  0  0  0  0  0 
    2.1374    0.7113    2.0752 H   0  0  0  0  0  0  0  0  0  0  0  0 
    3.7711    0.2231    1.6044 H   0  0  0  0  0  0  0  0  0  0  0  0 
    2.4224    3.3178   -1.0142 H   0  0  0  0  0  0  0  0  0  0  0  0 
    2.3142    2.7768    0.6585 H   0  0  0  0  0  0  0  0  0  0  0  0 
    0.9338    2.5421   -0.4346 H   0  0  0  0  0  0  0  0  0  0  0  0 
   10.8865    0.1414   -0.7590 H   0  0  0  0  0  0  0  0  0  0  0  0 
   10.0850   -2.2173   -0.7374 H   0  0  0  0  0  0  0  0  0  0  0  0 
    9.2346    1.9994   -0.8028 H   0  0  0  0  0  0  0  0  0  0  0  0 
    7.6638   -2.6971   -0.7601 H   0  0  0  0  0  0  0  0  0  0  0  0 
    6.8090    1.5179   -0.8241 H   0  0  0  0  0  0  0  0  0  0  0  0 
    3.2481   -1.0640   -3.0435 H   0  0  0  0  0  0  0  0  0  0  0  0 
    1.6266   -1.3941   -2.4357 H   0  0  0  0  0  0  0  0  0  0  0  0 
    1.1495    0.9325   -2.4326 H   0  0  0  0  0  0  0  0  0  0  0  0 
    2.7780    1.2953   -2.9889 H   0  0  0  0  0  0  0  0  0  0  0  0 
    5.5248   -2.1062   -0.8195 H   0  0  0  0  0  0  0  0  0  0  0  0 
    3.1390   -2.0907   -0.5449 H   0  0  0  0  0  0  0  0  0  0  0  0 
  1 19  1  0  0  0  0 
  1 21  1  0  0  0  0 
  2 24  1  0  0  0  0 
  2 22  1  0  0  0  0 
  2 23  1  0  0  0  0 
  3 26  1  0  0  0  0 
  4 28  1  0  0  0  0 
  4  5  1  0  0  0  0 
  5 29  1  0  0  0  0 
  6  4  2  0  0  0  0 
  7 31  1  0  0  0  0 
  7  5  2  0  0  0  0 
  8 12  2  0  0  0  0 
  8  6  1  0  0  0  0 
  9 10  1  0  0  0  0 
  9 14  1  0  0  0  0 
 10 17  1  0  0  0  0 
 11 12  1  0  0  0  0 
 12  7  1  0  0  0  0 
 13 11  2  0  0  0  0 
 13 15  1  0  0  0  0 
 14 13  1  0  0  0  0 
 14 38  1  1  0  0  0 
 14 16  1  0  0  0  0 
 16  1  1  0  0  0  0 
 16  2  1  0  0  0  0 
 17 15  1  0  0  0  0 
 17  3  1  1  0  0  0 
 17 16  1  0  0  0  0 
 18 15  2  0  0  0  0 
 20  1  1  0  0  0  0 
 25  3  1  0  0  0  0 
 27  3  1  0  0  0  0 
 30  6  1  0  0  0  0 
 32  8  1  0  0  0  0 
 33  9  1  0  0  0  0 
 34  9  1  0  0  0  0 
 35 10  1  0  0  0  0 
 36 10  1  0  0  0  0 
 37 11  1  0  0  0  0 
M  END 
>  <HBA> 
1 
 
>  <HBD> 
0 
 
>  <TPSA> 
17.07 
 
>  <cid> 
27021 
 
>  <dipole> 
2.44 
 
>  <excitation_energy_1> 
3.264 
 
>  <excitation_energy_2> 
3.981 
 
>  <excitation_energy_3> 
4.243 
 
>  <excitation_energy_4> 
5.237 
 
>  <homo_energy> 
-6.03 
 
>  <homo_lumo_gap> 
4.264 
 
>  <logP> 
4.095 
 
>  <lumo_energy> 
-1.766 
 
>  <melting_point> 
128.2 
 
>  <molecular_refractivity> 
75.25 
 
>  <oscillator_strength_1> 
0.0017 
 
>  <oscillator_strength_2> 
0.555 
 
>  <oscillator_strength_3> 
0.036 
 
>  <oscillator_strength_4> 
0.0023 
 
>  <open_babel_can_smiles> 
O=C1/C(=C\c2ccccc2)/[C@H]2C([C@]1(C)CC2)(C)C 
 
>  <mulliken_charges> 
38 
1   -0.467774 
2   -0.465072 
3   -0.476203 
4   -0.123677 
5   -0.134355 
6   -0.137445 
7   -0.188058 
8   -0.194405 
9   -0.273774 
10   -0.299867 
11   -0.287372 
12   0.173714 
13   0.143522 
14   -0.188601 
15   0.396531 
16   0.083714 
17   0.020863 
18   -0.485177 
19   0.143873 
20   0.146667 
21   0.148336 
22   0.142547 
23   0.146698 
24   0.159378 
25   0.163021 
26   0.151738 
27   0.13873 
28   0.131506 
29   0.130303 
30   0.134417 
31   0.127998 
32   0.20067 
33   0.145818 
34   0.142082 
35   0.147548 
36   0.154187 
37   0.130637 
38   0.117282 
 
>  <lowdin_charges> 
38 
1   -0.446788 
2   -0.447314 
3   -0.439641 
4   -0.145092 
5   -0.162503 
6   -0.154997 
7   -0.152986 
8   -0.154852 
9   -0.285926 
10   -0.281352 
11   -0.123651 
12   -0.009658 
13   -0.059164 
14   -0.129072 
15   0.149712 
16   0.006525 
17   -0.024569 
18   -0.243605 
19   0.151282 
20   0.151565 
21   0.154215 
22   0.150922 
23   0.1528 
24   0.157261 
25   0.164479 
26   0.155081 
27   0.147206 
28   0.156792 
29   0.159088 
30   0.158663 
31   0.154223 
32   0.191412 
33   0.151569 
34   0.1472 
35   0.148935 
36   0.154914 
37   0.155343 
38   0.141983 
 
$$$$ 
 
