PCCDB-ID:  29840 
public computational chemistry database (PCCDB) project, http://pccdb.org 
 
 25 26  0  0  1  0  0  0  0  0999 V2000 
    0.8934   -0.3106   -0.0052 C   0  0  0  0  0  0  0  0  0  0  0  0 
    3.2665   -1.1941    0.1420 C   0  0  0  0  0  0  0  0  0  0  0  0 
    4.6562   -1.0331    0.1827 C   0  0  0  0  0  0  0  0  0  0  0  0 
    2.9385    1.1849   -0.0959 C   0  0  0  0  0  0  0  0  0  0  0  0 
    5.1721    2.6050   -0.1457 C   0  0  0  0  0  0  0  0  0  0  0  0 
    7.3297    2.5183    1.2630 C   0  0  0  0  0  0  0  0  0  0  0  0 
    2.3920   -0.1073    0.0067 C   0  0  0  0  0  0  0  0  0  0  0  0 
    4.3145    1.3642   -0.0567 C   0  0  0  0  0  0  0  0  0  0  0  0 
    6.6104    2.0361    0.0102 C   0  0  1  0  0  0  0  0  0  0  0  0 
    5.1559    0.2592    0.0814 C   0  0  0  0  0  0  0  0  0  0  0  0 
    8.6692    1.9367    1.3295 N   0  0  0  0  0  0  0  0  0  0  0  0 
    6.4840    0.5802    0.0911 O   0  0  0  0  0  0  0  0  0  0  0  0 
    0.6333   -1.3487   -0.2371 H   0  0  0  0  0  0  0  0  0  0  0  0 
    0.4059    0.3298   -0.7496 H   0  0  0  0  0  0  0  0  0  0  0  0 
    0.4437   -0.0715    0.9682 H   0  0  0  0  0  0  0  0  0  0  0  0 
    2.8534   -2.1975    0.2159 H   0  0  0  0  0  0  0  0  0  0  0  0 
    5.3241   -1.8826    0.2826 H   0  0  0  0  0  0  0  0  0  0  0  0 
    2.2766    2.0418   -0.2078 H   0  0  0  0  0  0  0  0  0  0  0  0 
    4.9432    3.3269    0.6495 H   0  0  0  0  0  0  0  0  0  0  0  0 
    5.0486    3.1303   -1.1003 H   0  0  0  0  0  0  0  0  0  0  0  0 
    6.6834    2.2961    2.1330 H   0  0  0  0  0  0  0  0  0  0  0  0 
    7.4247    3.6107    1.2028 H   0  0  0  0  0  0  0  0  0  0  0  0 
    7.2382    2.2374   -0.8629 H   0  0  0  0  0  0  0  0  0  0  0  0 
    8.5785    0.9228    1.3744 H   0  0  0  0  0  0  0  0  0  0  0  0 
    9.1320    2.2258    2.1890 H   0  0  0  0  0  0  0  0  0  0  0  0 
  1  7  1  0  0  0  0 
  1 15  1  0  0  0  0 
  2  3  1  0  0  0  0 
  2 16  1  0  0  0  0 
  3 17  1  0  0  0  0 
  4  8  2  0  0  0  0 
  4  7  1  0  0  0  0 
  5  8  1  0  0  0  0 
  5  9  1  0  0  0  0 
  5 19  1  0  0  0  0 
  6 11  1  0  0  0  0 
  6 21  1  0  0  0  0 
  7  2  2  0  0  0  0 
  8 10  1  0  0  0  0 
  9 23  1  6  0  0  0 
  9 12  1  0  0  0  0 
  9  6  1  0  0  0  0 
 10 12  1  0  0  0  0 
 10  3  2  0  0  0  0 
 11 24  1  0  0  0  0 
 11 25  1  0  0  0  0 
 13  1  1  0  0  0  0 
 14  1  1  0  0  0  0 
 18  4  1  0  0  0  0 
 20  5  1  0  0  0  0 
 22  6  1  0  0  0  0 
M  END 
>  <HBA> 
2 
 
>  <HBD> 
1 
 
>  <TPSA> 
35.25 
 
>  <cid> 
29840 
 
>  <dipole> 
1.81 
 
>  <excitation_energy_1> 
4.628 
 
>  <excitation_energy_2> 
5.129 
 
>  <excitation_energy_3> 
5.33 
 
>  <excitation_energy_4> 
5.494 
 
>  <homo_energy> 
-5.475 
 
>  <homo_lumo_gap> 
5.499 
 
>  <logP> 
1.958 
 
>  <lumo_energy> 
0.024 
 
>  <melting_point> 
94.26 
 
>  <molecular_refractivity> 
48.27 
 
>  <oscillator_strength_1> 
0.0633 
 
>  <oscillator_strength_2> 
0.0126 
 
>  <oscillator_strength_3> 
0.0299 
 
>  <oscillator_strength_4> 
0.012 
 
>  <open_babel_can_smiles> 
NC[C@@H]1Cc2c(O1)ccc(c2)C 
 
>  <mulliken_charges> 
25 
1   -0.529055 
2   -0.193299 
3   -0.18638 
4   -0.258359 
5   -0.382663 
6   -0.140917 
7   0.175025 
8   0.115155 
9   0.137172 
10   0.351583 
11   -0.724451 
12   -0.552037 
13   0.152996 
14   0.154197 
15   0.15963 
16   0.120179 
17   0.133574 
18   0.117507 
19   0.158455 
20   0.164011 
21   0.121947 
22   0.140742 
23   0.155159 
24   0.31252 
25   0.297309 
 
>  <lowdin_charges> 
25 
1   -0.441574 
2   -0.159552 
3   -0.192798 
4   -0.167728 
5   -0.286215 
6   -0.21303 
7   -0.017667 
8   -0.044591 
9   0.011989 
10   0.090382 
11   -0.55559 
12   -0.222636 
13   0.154726 
14   0.157123 
15   0.157199 
16   0.153884 
17   0.165457 
18   0.154 
19   0.15834 
20   0.16069 
21   0.124746 
22   0.144252 
23   0.153622 
24   0.259056 
25   0.255915 
 
$$$$ 
 
