PCCDB-ID:  35136 
public computational chemistry database (PCCDB) project, http://pccdb.org 
 
 15 15  0  0  1  0  0  0  0  0999 V2000 
    4.0047   -0.7134    0.8355 C   0  0  0  0  0  0  0  0  0  0  0  0 
    4.0802   -1.8047   -3.2591 C   0  0  0  0  0  0  0  0  0  0  0  0 
    3.7775    0.5322   -4.1165 C   0  0  0  0  0  0  0  0  0  0  0  0 
    3.8792   -0.0578   -1.7801 C   0  0  2  0  0  0  0  0  0  0  0  0 
    4.1285   -1.5790    1.6040 N   0  0  0  0  0  0  0  0  0  0  0  0 
    4.2351   -3.0537   -3.4533 N   0  0  0  0  0  0  0  0  0  0  0  0 
    3.6527    1.4580   -4.9834 N   0  0  0  0  0  0  0  0  0  0  0  0 
    3.9449   -0.8337   -4.2893 N   0  0  0  0  0  0  0  0  0  0  0  0 
    4.0351   -1.3104   -1.9509 N   0  0  0  0  0  0  0  0  0  0  0  0 
    3.7470    0.8868   -2.7609 N   0  0  0  0  0  0  0  0  0  0  0  0 
    3.8103    0.6737   -0.1243 S   0  0  0  0  0  0  0  0  0  0  0  0 
    4.2508   -3.2820   -4.4505 H   0  0  0  0  0  0  0  0  0  0  0  0 
    3.6895    1.1023   -5.9384 H   0  0  0  0  0  0  0  0  0  0  0  0 
    3.9756   -1.1648   -5.2444 H   0  0  0  0  0  0  0  0  0  0  0  0 
    3.6300    1.8757   -2.5771 H   0  0  0  0  0  0  0  0  0  0  0  0 
  1  5  3  0  0  0  0 
  2  9  2  0  0  0  0 
  3 10  1  0  0  0  0 
  4 11  1  6  0  0  0 
  6  2  1  0  0  0  0 
  7  3  2  0  0  0  0 
  8  3  1  0  0  0  0 
  8  2  1  0  0  0  0 
  9  4  1  0  0  0  0 
 10 15  1  0  0  0  0 
 10  4  1  0  0  0  0 
 11  1  1  0  0  0  0 
 12  6  1  0  0  0  0 
 13  7  1  0  0  0  0 
 14  8  1  0  0  0  0 
M  RAD  2   4   2   6   2 
M  END 
>  <HBA> 
7 
 
>  <HBD> 
2 
 
>  <TPSA> 
139.8 
 
>  <cid> 
35136 
 
>  <dipole> 
6.0 
 
>  <excitation_energy_1> 
4.693 
 
>  <excitation_energy_2> 
5.059 
 
>  <excitation_energy_3> 
5.1 
 
>  <excitation_energy_4> 
5.176 
 
>  <homo_energy> 
-7.121 
 
>  <homo_lumo_gap> 
5.611 
 
>  <logP> 
0.772 
 
>  <lumo_energy> 
-1.51 
 
>  <melting_point> 
196.87 
 
>  <molecular_refractivity> 
40.11 
 
>  <oscillator_strength_1> 
0.0001 
 
>  <oscillator_strength_2> 
0.0 
 
>  <oscillator_strength_3> 
0.0612 
 
>  <oscillator_strength_4> 
0.0196 
 
>  <open_babel_can_smiles> 
N#CS[C]1NC(=N)NC(=N1)[NH] 
 
>  <mulliken_charges> 
15 
1   0.170104 
2   0.602005 
3   0.697425 
4   0.314928 
5   -0.354756 
6   -0.579683 
7   -0.640504 
8   -0.695296 
9   -0.420058 
10   -0.644061 
11   0.276457 
12   0.275156 
13   0.29013 
14   0.336321 
15   0.371834 
 
>  <lowdin_charges> 
15 
1   -0.144435 
2   0.128947 
3   0.14587 
4   0.005558 
5   -0.069098 
6   -0.377378 
7   -0.442313 
8   -0.276581 
9   -0.172664 
10   -0.22713 
11   0.306425 
12   0.249779 
13   0.263339 
14   0.294147 
15   0.315534 
 
$$$$ 
 
