PCCDB-ID:  23639 
public computational chemistry database (PCCDB) project, http://pccdb.org 
 
 37 39  0  0  0  0  0  0  0  0999 V2000 
   -2.0138    0.6193   -0.7927 C   0  0  0  0  0  0  0  0  0  0  0  0 
    1.1388    0.5435    3.6145 C   0  0  0  0  0  0  0  0  0  0  0  0 
   -1.5141   -0.6685   -0.5950 C   0  0  0  0  0  0  0  0  0  0  0  0 
   -1.1267    1.6954   -0.8398 C   0  0  0  0  0  0  0  0  0  0  0  0 
    1.0420   -0.7971    2.8760 C   0  0  0  0  0  0  0  0  0  0  0  0 
    1.4343    1.6773    2.6252 C   0  0  0  0  0  0  0  0  0  0  0  0 
   -0.1419   -0.8743   -0.4437 C   0  0  0  0  0  0  0  0  0  0  0  0 
    0.2444    1.4832   -0.6882 C   0  0  0  0  0  0  0  0  0  0  0  0 
    2.3280   -1.1001    2.0877 C   0  0  0  0  0  0  0  0  0  0  0  0 
    2.7284    1.4102    1.8365 C   0  0  0  0  0  0  0  0  0  0  0  0 
    3.1656    0.8023   -1.2935 C   0  0  0  0  0  0  0  0  0  0  0  0 
    2.8242   -1.2859   -1.0783 C   0  0  0  0  0  0  0  0  0  0  0  0 
    0.7645    0.1965   -0.4793 C   0  0  0  0  0  0  0  0  0  0  0  0 
    2.8198    0.0265    1.1403 C   0  0  0  0  0  0  0  0  0  0  0  0 
    2.2590   -0.0322   -0.3223 C   0  0  0  0  0  0  0  0  0  0  0  0 
    3.6807   -0.4316   -1.9402 N   0  0  0  0  0  0  0  0  0  0  0  0 
   -3.0812    0.7815   -0.9163 H   0  0  0  0  0  0  0  0  0  0  0  0 
    1.9404    0.4925    4.3676 H   0  0  0  0  0  0  0  0  0  0  0  0 
    0.2083    0.7461    4.1600 H   0  0  0  0  0  0  0  0  0  0  0  0 
   -2.1916   -1.5181   -0.5638 H   0  0  0  0  0  0  0  0  0  0  0  0 
   -1.5000    2.7036   -1.0009 H   0  0  0  0  0  0  0  0  0  0  0  0 
    0.1778   -0.7716    2.2026 H   0  0  0  0  0  0  0  0  0  0  0  0 
    0.8609   -1.6132    3.5881 H   0  0  0  0  0  0  0  0  0  0  0  0 
    1.5327    2.6332    3.1566 H   0  0  0  0  0  0  0  0  0  0  0  0 
    0.5850    1.7848    1.9412 H   0  0  0  0  0  0  0  0  0  0  0  0 
    0.2274   -1.8858   -0.2968 H   0  0  0  0  0  0  0  0  0  0  0  0 
    0.9189    2.3342   -0.7345 H   0  0  0  0  0  0  0  0  0  0  0  0 
    2.2137   -2.0374    1.5277 H   0  0  0  0  0  0  0  0  0  0  0  0 
    3.1297   -1.2856    2.8176 H   0  0  0  0  0  0  0  0  0  0  0  0 
    3.5668    1.4727    2.5456 H   0  0  0  0  0  0  0  0  0  0  0  0 
    2.8971    2.2120    1.1057 H   0  0  0  0  0  0  0  0  0  0  0  0 
    3.9254    1.4197   -0.7978 H   0  0  0  0  0  0  0  0  0  0  0  0 
    2.6210    1.4357   -2.0028 H   0  0  0  0  0  0  0  0  0  0  0  0 
    2.0843   -1.8426   -1.6640 H   0  0  0  0  0  0  0  0  0  0  0  0 
    3.3670   -1.9994   -0.4452 H   0  0  0  0  0  0  0  0  0  0  0  0 
    3.8940   -0.1596    0.9887 H   0  0  0  0  0  0  0  0  0  0  0  0 
    4.6718   -0.5757   -1.7653 H   0  0  0  0  0  0  0  0  0  0  0  0 
  1  3  1  0  0  0  0 
  2 19  1  0  0  0  0 
  2 18  1  0  0  0  0 
  3 20  1  0  0  0  0 
  3  7  2  0  0  0  0 
  4  1  2  0  0  0  0 
  4  8  1  0  0  0  0 
  5 23  1  0  0  0  0 
  5  2  1  0  0  0  0 
  6 24  1  0  0  0  0 
  6  2  1  0  0  0  0 
  7 26  1  0  0  0  0 
  8 13  2  0  0  0  0 
  9 29  1  0  0  0  0 
  9  5  1  0  0  0  0 
 10 30  1  0  0  0  0 
 10  6  1  0  0  0  0 
 11 32  1  0  0  0  0 
 11 15  1  0  0  0  0 
 12 35  1  0  0  0  0 
 12 15  1  0  0  0  0 
 13  7  1  0  0  0  0 
 13 15  1  0  0  0  0 
 14 10  1  0  0  0  0 
 14  9  1  0  0  0  0 
 15 14  1  0  0  0  0 
 16 37  1  0  0  0  0 
 16 11  1  0  0  0  0 
 16 12  1  0  0  0  0 
 17  1  1  0  0  0  0 
 21  4  1  0  0  0  0 
 22  5  1  0  0  0  0 
 25  6  1  0  0  0  0 
 27  8  1  0  0  0  0 
 28  9  1  0  0  0  0 
 31 10  1  0  0  0  0 
 33 11  1  0  0  0  0 
 34 12  1  0  0  0  0 
 36 14  1  0  0  0  0 
M  END 
>  <HBA> 
1 
 
>  <HBD> 
1 
 
>  <TPSA> 
12.03 
 
>  <cid> 
23639 
 
>  <dipole> 
1.43 
 
>  <excitation_energy_1> 
4.993 
 
>  <excitation_energy_2> 
5.03 
 
>  <excitation_energy_3> 
5.032 
 
>  <excitation_energy_4> 
5.307 
 
>  <homo_energy> 
-5.769 
 
>  <homo_lumo_gap> 
5.772 
 
>  <logP> 
3.437 
 
>  <lumo_energy> 
0.003 
 
>  <melting_point> 
81.12 
 
>  <molecular_refractivity> 
72.24 
 
>  <oscillator_strength_1> 
0.0295 
 
>  <oscillator_strength_2> 
0.002 
 
>  <oscillator_strength_3> 
0.0036 
 
>  <oscillator_strength_4> 
0.0 
 
>  <open_babel_can_smiles> 
N1CC(C1)(C1CCCCC1)c1ccccc1 
 
>  <mulliken_charges> 
37 
1   -0.129808 
2   -0.253837 
3   -0.130306 
4   -0.130108 
5   -0.26383 
6   -0.263879 
7   -0.184115 
8   -0.184276 
9   -0.27654 
10   -0.27652 
11   -0.149061 
12   -0.149098 
13   0.152102 
14   -0.084471 
15   -0.026909 
16   -0.560936 
17   0.128208 
18   0.120353 
19   0.128726 
20   0.128983 
21   0.128978 
22   0.149004 
23   0.124762 
24   0.124766 
25   0.149396 
26   0.129701 
27   0.129686 
28   0.128191 
29   0.128241 
30   0.12826 
31   0.128029 
32   0.131422 
33   0.144606 
34   0.14462 
35   0.131541 
36   0.110896 
37   0.293221 
 
>  <lowdin_charges> 
37 
1   -0.158727 
2   -0.277667 
3   -0.157672 
4   -0.155692 
5   -0.28563 
6   -0.28482 
7   -0.167055 
8   -0.169128 
9   -0.283311 
10   -0.283983 
11   -0.209709 
12   -0.210158 
13   -0.001681 
14   -0.121669 
15   -0.007106 
16   -0.378785 
17   0.155557 
18   0.133241 
19   0.143033 
20   0.158032 
21   0.156556 
22   0.149298 
23   0.141793 
24   0.140935 
25   0.149654 
26   0.155774 
27   0.157307 
28   0.140888 
29   0.141794 
30   0.141529 
31   0.141539 
32   0.136039 
33   0.144887 
34   0.144832 
35   0.136176 
36   0.134176 
37   0.249752 
 
$$$$ 
 
