PCCDB-ID:  34883 
public computational chemistry database (PCCDB) project, http://pccdb.org 
 
 29 30  0  0  0  0  0  0  0  0999 V2000 
    0.9917   -0.1401    0.0512 C   0  0  0  0  0  0  0  0  0  0  0  0 
    7.5270    1.4516    0.0514 C   0  0  0  0  0  0  0  0  0  0  0  0 
    4.8733   -3.7591    0.0716 C   0  0  0  0  0  0  0  0  0  0  0  0 
    3.1205    1.1567    0.0466 C   0  0  0  0  0  0  0  0  0  0  0  0 
    7.5595   -1.0652    0.0642 C   0  0  0  0  0  0  0  0  0  0  0  0 
    6.9254   -2.3059    0.0687 C   0  0  0  0  0  0  0  0  0  0  0  0 
    4.6104    1.3273    0.0447 C   0  0  0  0  0  0  0  0  0  0  0  0 
    3.2556   -1.3225    0.0568 C   0  0  0  0  0  0  0  0  0  0  0  0 
    2.4933   -0.0217    0.0509 C   0  0  0  0  0  0  0  0  0  0  0  0 
    6.8192    0.1162    0.0562 C   0  0  0  0  0  0  0  0  0  0  0  0 
    5.5342   -2.3997    0.0660 C   0  0  0  0  0  0  0  0  0  0  0  0 
    5.4083    0.0382    0.0531 C   0  0  0  0  0  0  0  0  0  0  0  0 
    4.7688   -1.2111    0.0587 C   0  0  0  0  0  0  0  0  0  0  0  0 
    0.5093    0.8425    0.0497 H   0  0  0  0  0  0  0  0  0  0  0  0 
    0.6357   -0.6929    0.9321 H   0  0  0  0  0  0  0  0  0  0  0  0 
    0.6358   -0.6954   -0.8282 H   0  0  0  0  0  0  0  0  0  0  0  0 
    8.6128    1.3166    0.0468 H   0  0  0  0  0  0  0  0  0  0  0  0 
    7.2711    2.0555    0.9320 H   0  0  0  0  0  0  0  0  0  0  0  0 
    7.2633    2.0533   -0.8284 H   0  0  0  0  0  0  0  0  0  0  0  0 
    5.6237   -4.5556    0.0803 H   0  0  0  0  0  0  0  0  0  0  0  0 
    4.2377   -3.9123   -0.8105 H   0  0  0  0  0  0  0  0  0  0  0  0 
    4.2293   -3.9009    0.9494 H   0  0  0  0  0  0  0  0  0  0  0  0 
    2.5332    2.0748    0.0441 H   0  0  0  0  0  0  0  0  0  0  0  0 
    8.6462   -1.0153    0.0677 H   0  0  0  0  0  0  0  0  0  0  0  0 
    7.5217   -3.2157    0.0735 H   0  0  0  0  0  0  0  0  0  0  0  0 
    4.9035    1.9468    0.9086 H   0  0  0  0  0  0  0  0  0  0  0  0 
    4.9022    1.9341   -0.8286 H   0  0  0  0  0  0  0  0  0  0  0  0 
    2.9323   -1.9247   -0.8090 H   0  0  0  0  0  0  0  0  0  0  0  0 
    2.9299   -1.9174    0.9267 H   0  0  0  0  0  0  0  0  0  0  0  0 
  1 15  1  0  0  0  0 
  2 10  1  0  0  0  0 
  2 18  1  0  0  0  0 
  3 20  1  0  0  0  0 
  3 22  1  0  0  0  0 
  4  9  2  0  0  0  0 
  5 24  1  0  0  0  0 
  5  6  2  0  0  0  0 
  6 25  1  0  0  0  0 
  7  4  1  0  0  0  0 
  7 12  1  0  0  0  0 
  7 26  1  0  0  0  0 
  8 13  1  0  0  0  0 
  8 29  1  0  0  0  0 
  9  1  1  0  0  0  0 
  9  8  1  0  0  0  0 
 10  5  1  0  0  0  0 
 11  6  1  0  0  0  0 
 11  3  1  0  0  0  0 
 12 10  2  0  0  0  0 
 12 13  1  0  0  0  0 
 13 11  2  0  0  0  0 
 14  1  1  0  0  0  0 
 16  1  1  0  0  0  0 
 17  2  1  0  0  0  0 
 19  2  1  0  0  0  0 
 21  3  1  0  0  0  0 
 23  4  1  0  0  0  0 
 27  7  1  0  0  0  0 
 28  8  1  0  0  0  0 
M  END 
>  <HBA> 
0 
 
>  <HBD> 
0 
 
>  <TPSA> 
0.0 
 
>  <cid> 
34883 
 
>  <dipole> 
0.41 
 
>  <excitation_energy_1> 
5.092 
 
>  <excitation_energy_2> 
5.44 
 
>  <excitation_energy_3> 
5.593 
 
>  <excitation_energy_4> 
5.681 
 
>  <homo_energy> 
-5.957 
 
>  <homo_lumo_gap> 
6.272 
 
>  <logP> 
3.348 
 
>  <lumo_energy> 
0.316 
 
>  <melting_point> 
55.46 
 
>  <molecular_refractivity> 
58.14 
 
>  <oscillator_strength_1> 
0.0003 
 
>  <oscillator_strength_2> 
0.0026 
 
>  <oscillator_strength_3> 
0.0014 
 
>  <oscillator_strength_4> 
0.0001 
 
>  <open_babel_can_smiles> 
CC1=CCc2c(C1)c(C)ccc2C 
 
>  <mulliken_charges> 
29 
1   -0.516687 
2   -0.532732 
3   -0.532957 
4   -0.172259 
5   -0.186708 
6   -0.187349 
7   -0.38725 
8   -0.423441 
9   0.204173 
10   0.128567 
11   0.126447 
12   0.067695 
13   0.073434 
14   0.152867 
15   0.150163 
16   0.150255 
17   0.152877 
18   0.157002 
19   0.156851 
20   0.153185 
21   0.156736 
22   0.156719 
23   0.109859 
24   0.115184 
25   0.115198 
26   0.154172 
27   0.154334 
28   0.151836 
29   0.151828 
 
>  <lowdin_charges> 
29 
1   -0.439539 
2   -0.440894 
3   -0.443091 
4   -0.190368 
5   -0.169038 
6   -0.172642 
7   -0.271243 
8   -0.272701 
9   -0.013644 
10   -0.011013 
11   -0.011467 
12   -0.017962 
13   -0.017892 
14   0.155633 
15   0.153807 
16   0.153872 
17   0.154256 
18   0.156861 
19   0.156828 
20   0.156906 
21   0.15653 
22   0.156539 
23   0.14855 
24   0.149377 
25   0.151947 
26   0.155761 
27   0.155758 
28   0.154438 
29   0.154431 
 
$$$$ 
 
