PCCDB-ID:  66762 
public computational chemistry database (PCCDB) project, http://pccdb.org 
 
 20 20  0  0  0  0  0  0  0  0999 V2000 
    1.0073    0.1803    0.2578 C   0  0  0  0  0  0  0  0  0  0  0  0 
    6.7107   -0.0160   -0.4966 C   0  0  0  0  0  0  0  0  0  0  0  0 
    4.4510   -1.0481   -0.1660 C   0  0  0  0  0  0  0  0  0  0  0  0 
    2.4897    0.0872    0.0246 C   0  0  0  0  0  0  0  0  0  0  0  0 
    5.2095    0.0611   -0.3904 C   0  0  0  0  0  0  0  0  0  0  0  0 
    4.5397    1.3638   -0.4547 C   0  0  0  0  0  0  0  0  0  0  0  0 
    7.2144    0.6387   -1.7146 N   0  0  0  0  0  0  0  0  0  0  0  0 
    4.9957    2.5379   -0.6937 N   0  0  0  0  0  0  0  0  0  0  0  0 
    3.0859   -1.0738    0.0348 N   0  0  0  0  0  0  0  0  0  0  0  0 
    3.1558    1.2538   -0.1885 N   0  0  0  0  0  0  0  0  0  0  0  0 
    0.6087   -0.8245    0.4004 H   0  0  0  0  0  0  0  0  0  0  0  0 
    0.5013    0.6494   -0.5949 H   0  0  0  0  0  0  0  0  0  0  0  0 
    0.7864    0.7826    1.1476 H   0  0  0  0  0  0  0  0  0  0  0  0 
    7.0121   -1.0727   -0.3939 H   0  0  0  0  0  0  0  0  0  0  0  0 
    7.1557    0.5211    0.3539 H   0  0  0  0  0  0  0  0  0  0  0  0 
    4.9296   -2.0256   -0.1193 H   0  0  0  0  0  0  0  0  0  0  0  0 
    6.8596    0.1551   -2.5383 H   0  0  0  0  0  0  0  0  0  0  0  0 
    8.2301    0.5703   -1.7473 H   0  0  0  0  0  0  0  0  0  0  0  0 
    5.9839    2.4674   -0.9444 H   0  0  0  0  0  0  0  0  0  0  0  0 
    2.6585    2.1378   -0.2106 H   0  0  0  0  0  0  0  0  0  0  0  0 
  1 11  1  0  0  0  0 
  1 13  1  0  0  0  0 
  2 14  1  0  0  0  0 
  2  5  1  0  0  0  0 
  2 15  1  0  0  0  0 
  3 16  1  0  0  0  0 
  3  9  1  0  0  0  0 
  4  9  2  0  0  0  0 
  4  1  1  0  0  0  0 
  5  3  1  0  0  0  0 
  6  5  2  0  0  0  0 
  6 10  1  0  0  0  0 
  7  2  1  0  0  0  0 
  8  6  1  0  0  0  0 
 10  4  1  0  0  0  0 
 12  1  1  0  0  0  0 
 17  7  1  0  0  0  0 
 18  7  1  0  0  0  0 
 19  8  1  0  0  0  0 
 20 10  1  0  0  0  0 
M  RAD  2   3   2   8   2 
M  END 
>  <HBA> 
4 
 
>  <HBD> 
2 
 
>  <TPSA> 
77.82 
 
>  <cid> 
66762 
 
>  <dipole> 
1.37 
 
>  <excitation_energy_1> 
4.004 
 
>  <excitation_energy_2> 
4.648 
 
>  <excitation_energy_3> 
5.002 
 
>  <excitation_energy_4> 
5.068 
 
>  <homo_energy> 
-5.521 
 
>  <homo_lumo_gap> 
4.705 
 
>  <logP> 
1.107 
 
>  <lumo_energy> 
-0.816 
 
>  <melting_point> 
147.41 
 
>  <molecular_refractivity> 
39.08 
 
>  <oscillator_strength_1> 
0.0883 
 
>  <oscillator_strength_2> 
0.0044 
 
>  <oscillator_strength_3> 
0.0013 
 
>  <oscillator_strength_4> 
0.0064 
 
>  <open_babel_can_smiles> 
CC1=N[CH]C(=C(N1)[NH])CN 
 
>  <mulliken_charges> 
20 
1   -0.533228 
2   -0.234826 
3   -0.048076 
4   0.530815 
5   0.121969 
6   0.445381 
7   -0.714946 
8   -0.678484 
9   -0.486079 
10   -0.637342 
11   0.197145 
12   0.172641 
13   0.174079 
14   0.131192 
15   0.160363 
16   0.135926 
17   0.30345 
18   0.30388 
19   0.317689 
20   0.338449 
 
>  <lowdin_charges> 
20 
1   -0.452409 
2   -0.197849 
3   -0.092438 
4   0.119828 
5   -0.07856 
6   0.086108 
7   -0.5522 
8   -0.453545 
9   -0.219183 
10   -0.200601 
11   0.183505 
12   0.169427 
13   0.169928 
14   0.129476 
15   0.153793 
16   0.155387 
17   0.259204 
18   0.256913 
19   0.26605 
20   0.297168 
 
$$$$ 
 
