PCCDB-ID:  10950 
public computational chemistry database (PCCDB) project, http://pccdb.org 
 
 22 21  0  0  1  0  0  0  0  0999 V2000 
    4.5501   -0.2683    0.7679 C   0  0  0  0  0  0  0  0  0  0  0  0 
    0.4688    0.1222   -2.3180 C   0  0  0  0  0  0  0  0  0  0  0  0 
    3.4392    3.0495   -3.9409 C   0  0  0  0  0  0  0  0  0  0  0  0 
    2.4572   -0.1700   -0.7512 C   0  0  0  0  0  0  0  0  0  0  0  0 
    3.9718   -0.3465   -0.6334 C   0  0  0  0  0  0  0  0  0  0  0  0 
    1.9864    0.1229   -2.1705 C   0  0  2  0  0  0  0  0  0  0  0  0 
    2.7785    1.6988   -3.7897 C   0  0  0  0  0  0  0  0  0  0  0  0 
    4.6699   -0.5531   -1.6066 O   0  0  0  0  0  0  0  0  0  0  0  0 
    2.5262    0.9372   -4.6969 O   0  0  0  0  0  0  0  0  0  0  0  0 
    2.5114    1.4425   -2.4860 O   0  0  0  0  0  0  0  0  0  0  0  0 
    3.9993   -0.9185    1.4588 H   0  0  0  0  0  0  0  0  0  0  0  0 
    4.4555    0.7561    1.1512 H   0  0  0  0  0  0  0  0  0  0  0  0 
    5.6046   -0.5506    0.7520 H   0  0  0  0  0  0  0  0  0  0  0  0 
    0.0615   -0.8637   -2.0660 H   0  0  0  0  0  0  0  0  0  0  0  0 
    0.1930    0.3514   -3.3506 H   0  0  0  0  0  0  0  0  0  0  0  0 
    0.0100    0.8654   -1.6559 H   0  0  0  0  0  0  0  0  0  0  0  0 
    4.4552    3.0046   -3.5330 H   0  0  0  0  0  0  0  0  0  0  0  0 
    2.8920    3.8130   -3.3799 H   0  0  0  0  0  0  0  0  0  0  0  0 
    3.4851    3.3157   -4.9975 H   0  0  0  0  0  0  0  0  0  0  0  0 
    2.1194    0.6178   -0.0650 H   0  0  0  0  0  0  0  0  0  0  0  0 
    1.9902   -1.1008   -0.3962 H   0  0  0  0  0  0  0  0  0  0  0  0 
    2.4379   -0.5855   -2.8679 H   0  0  0  0  0  0  0  0  0  0  0  0 
  1 12  1  0  0  0  0 
  1 11  1  0  0  0  0 
  2  6  1  0  0  0  0 
  2 14  1  0  0  0  0 
  2 16  1  0  0  0  0 
  3  7  1  0  0  0  0 
  3 17  1  0  0  0  0 
  3 18  1  0  0  0  0 
  4  5  1  0  0  0  0 
  4 21  1  0  0  0  0 
  4 20  1  0  0  0  0 
  5  1  1  0  0  0  0 
  6 22  1  6  0  0  0 
  6  4  1  0  0  0  0 
  7 10  1  0  0  0  0 
  8  5  2  0  0  0  0 
  9  7  2  0  0  0  0 
 10  6  1  0  0  0  0 
 13  1  1  0  0  0  0 
 15  2  1  0  0  0  0 
 19  3  1  0  0  0  0 
M  END 
>  <HBA> 
3 
 
>  <HBD> 
0 
 
>  <TPSA> 
43.37 
 
>  <cid> 
10950 
 
>  <dipole> 
4.11 
 
>  <excitation_energy_1> 
4.436 
 
>  <excitation_energy_2> 
5.781 
 
>  <excitation_energy_3> 
6.064 
 
>  <excitation_energy_4> 
6.268 
 
>  <homo_energy> 
-6.817 
 
>  <homo_lumo_gap> 
6.348 
 
>  <logP> 
0.917 
 
>  <lumo_energy> 
-0.468 
 
>  <melting_point> 
6.61 
 
>  <molecular_refractivity> 
37.25 
 
>  <oscillator_strength_1> 
0.0 
 
>  <oscillator_strength_2> 
0.0014 
 
>  <oscillator_strength_3> 
0.0001 
 
>  <oscillator_strength_4> 
0.0322 
 
>  <open_babel_can_smiles> 
CC(=O)C[C@H](OC(=O)C)C 
 
>  <mulliken_charges> 
22 
1   -0.5326 
2   -0.465397 
3   -0.526422 
4   -0.375918 
5   0.465274 
6   0.140807 
7   0.619386 
8   -0.433021 
9   -0.469666 
10   -0.472697 
11   0.165421 
12   0.175289 
13   0.182274 
14   0.1462 
15   0.178857 
16   0.147544 
17   0.187726 
18   0.174331 
19   0.181103 
20   0.161217 
21   0.167865 
22   0.182428 
 
>  <lowdin_charges> 
22 
1   -0.474405 
2   -0.453383 
3   -0.465175 
4   -0.320835 
5   0.172577 
6   0.01104 
7   0.208802 
8   -0.231929 
9   -0.265665 
10   -0.204422 
11   0.168673 
12   0.172931 
13   0.172875 
14   0.155482 
15   0.168497 
16   0.153088 
17   0.180382 
18   0.174306 
19   0.173725 
20   0.163668 
21   0.171454 
22   0.168316 
 
$$$$ 
 
