PCCDB-ID:  70266 
public computational chemistry database (PCCDB) project, http://pccdb.org 
 
 18 18  0  0  0  0  0  0  0  0999 V2000 
    2.4821   -1.8524   -0.0210 C   0  0  0  0  0  0  0  0  0  0  0  0 
    5.2652    0.3118    2.5356 C   0  0  0  0  0  0  0  0  0  0  0  0 
    4.3402    1.4820    2.8799 C   0  0  0  0  0  0  0  0  0  0  0  0 
    4.3167   -0.7168    1.8933 C   0  0  0  0  0  0  0  0  0  0  0  0 
    2.3338   -0.3798    0.3367 C   0  0  0  0  0  0  0  0  0  0  0  0 
    3.2273    1.4142    1.8321 C   0  0  0  0  0  0  0  0  0  0  0  0 
    3.2665    0.1097    1.2739 N   0  0  0  0  0  0  0  0  0  0  0  0 
    1.4780    0.3197   -0.1602 O   0  0  0  0  0  0  0  0  0  0  0  0 
    2.4519    2.2956    1.5539 O   0  0  0  0  0  0  0  0  0  0  0  0 
    3.4177   -2.0362   -0.5626 H   0  0  0  0  0  0  0  0  0  0  0  0 
    1.6443   -2.1201   -0.6657 H   0  0  0  0  0  0  0  0  0  0  0  0 
    2.4805   -2.4957    0.8660 H   0  0  0  0  0  0  0  0  0  0  0  0 
    5.7926   -0.1046    3.3977 H   0  0  0  0  0  0  0  0  0  0  0  0 
    6.0154    0.6281    1.8026 H   0  0  0  0  0  0  0  0  0  0  0  0 
    4.8144    2.4657    2.8579 H   0  0  0  0  0  0  0  0  0  0  0  0 
    3.8781    1.3610    3.8689 H   0  0  0  0  0  0  0  0  0  0  0  0 
    3.8834   -1.3859    2.6498 H   0  0  0  0  0  0  0  0  0  0  0  0 
    4.8219   -1.3345    1.1471 H   0  0  0  0  0  0  0  0  0  0  0  0 
  1  5  1  0  0  0  0 
  1 12  1  0  0  0  0 
  2  3  1  0  0  0  0 
  2 13  1  0  0  0  0 
  3 16  1  0  0  0  0 
  4  2  1  0  0  0  0 
  4 17  1  0  0  0  0 
  5  7  1  0  0  0  0 
  6  3  1  0  0  0  0 
  7  6  1  0  0  0  0 
  7  4  1  0  0  0  0 
  8  5  2  0  0  0  0 
  9  6  2  0  0  0  0 
 10  1  1  0  0  0  0 
 11  1  1  0  0  0  0 
 14  2  1  0  0  0  0 
 15  3  1  0  0  0  0 
 18  4  1  0  0  0  0 
M  END 
>  <HBA> 
3 
 
>  <HBD> 
0 
 
>  <TPSA> 
37.38 
 
>  <cid> 
70266 
 
>  <dipole> 
6.29 
 
>  <excitation_energy_1> 
4.301 
 
>  <excitation_energy_2> 
5.241 
 
>  <excitation_energy_3> 
5.763 
 
>  <excitation_energy_4> 
6.104 
 
>  <homo_energy> 
-6.43 
 
>  <homo_lumo_gap> 
5.88 
 
>  <logP> 
0.093 
 
>  <lumo_energy> 
-0.55 
 
>  <melting_point> 
41.43 
 
>  <molecular_refractivity> 
36.05 
 
>  <oscillator_strength_1> 
0.0009 
 
>  <oscillator_strength_2> 
0.0008 
 
>  <oscillator_strength_3> 
0.0206 
 
>  <oscillator_strength_4> 
0.1696 
 
>  <open_babel_can_smiles> 
CC(=O)N1CCCC1=O 
 
>  <mulliken_charges> 
18 
1   -0.547886 
2   -0.301378 
3   -0.374843 
4   -0.13055 
5   0.574319 
6   0.593393 
7   -0.488063 
8   -0.428259 
9   -0.439155 
10   0.174483 
11   0.193205 
12   0.168225 
13   0.157258 
14   0.164593 
15   0.18325 
16   0.178127 
17   0.159183 
18   0.164098 
 
>  <lowdin_charges> 
18 
1   -0.475541 
2   -0.283324 
3   -0.306449 
4   -0.198148 
5   0.179045 
6   0.173268 
7   -0.116821 
8   -0.233807 
9   -0.225458 
10   0.170588 
11   0.182459 
12   0.167326 
13   0.158955 
14   0.157504 
15   0.174371 
16   0.170769 
17   0.14707 
18   0.158195 
 
$$$$ 
 
