PCCDB-ID:  16124 
public computational chemistry database (PCCDB) project, http://pccdb.org 
 
 15 14  0  0  0  0  0  0  0  0999 V2000 
    0.8777   -0.0232   -0.2770 C   0  0  0  0  0  0  0  0  0  0  0  0 
    1.1642    2.2440    1.1789 O   0  0  0  0  0  0  0  0  0  0  0  0 
   -1.1361    1.2756    1.1306 O   0  0  0  0  0  0  0  0  0  0  0  0 
    0.6964   -0.0494    2.4379 O   0  0  0  0  0  0  0  0  0  0  0  0 
    2.6661   -1.5155    1.1000 O   0  0  0  0  0  0  0  0  0  0  0  0 
    3.1193   -1.2589   -1.3378 O   0  0  0  0  0  0  0  0  0  0  0  0 
    3.4156    0.8614    0.1762 O   0  0  0  0  0  0  0  0  0  0  0  0 
    0.4078    0.8367    1.2661 P   0  0  0  0  0  0  0  0  0  0  0  0 
    2.6531   -0.4058   -0.0516 P   0  0  0  0  0  0  0  0  0  0  0  0 
    0.7320    0.6159   -1.1521 H   0  0  0  0  0  0  0  0  0  0  0  0 
    0.2916   -0.9397   -0.3878 H   0  0  0  0  0  0  0  0  0  0  0  0 
    2.1140    2.0882    0.9429 H   0  0  0  0  0  0  0  0  0  0  0  0 
   -1.6429    0.9369    1.8884 H   0  0  0  0  0  0  0  0  0  0  0  0 
    2.1094   -1.2045    1.8600 H   0  0  0  0  0  0  0  0  0  0  0  0 
    3.9047   -0.8484   -1.7376 H   0  0  0  0  0  0  0  0  0  0  0  0 
  1  9  1  0  0  0  0 
  1  8  1  0  0  0  0 
  2  8  1  0  0  0  0 
  3  8  1  0  0  0  0 
  3 13  1  0  0  0  0 
  5 14  1  0  0  0  0 
  6  9  1  0  0  0  0 
  8  4  2  0  0  0  0 
  9  7  2  0  0  0  0 
  9  5  1  0  0  0  0 
 10  1  1  0  0  0  0 
 11  1  1  0  0  0  0 
 12  2  1  0  0  0  0 
 15  6  1  0  0  0  0 
M  END 
>  <HBA> 
6 
 
>  <HBD> 
4 
 
>  <TPSA> 
134.68 
 
>  <cid> 
16124 
 
>  <dipole> 
3.11 
 
>  <excitation_energy_1> 
7.144 
 
>  <excitation_energy_2> 
7.149 
 
>  <excitation_energy_3> 
7.277 
 
>  <excitation_energy_4> 
7.326 
 
>  <homo_energy> 
-8.457 
 
>  <homo_lumo_gap> 
8.912 
 
>  <logP> 
-0.701 
 
>  <lumo_energy> 
0.454 
 
>  <melting_point> 
149.42 
 
>  <molecular_refractivity> 
28.9 
 
>  <oscillator_strength_1> 
0.0134 
 
>  <oscillator_strength_2> 
0.0181 
 
>  <oscillator_strength_3> 
0.0002 
 
>  <oscillator_strength_4> 
0.1647 
 
>  <open_babel_can_smiles> 
OP(=O)(CP(=O)(O)O)O 
 
>  <mulliken_charges> 
15 
1   -0.720116 
2   -0.654659 
3   -0.626947 
4   -0.605496 
5   -0.656079 
6   -0.627665 
7   -0.601582 
8   1.102564 
9   1.100344 
10   0.22492 
11   0.225273 
12   0.469478 
13   0.449878 
14   0.470765 
15   0.449323 
 
>  <lowdin_charges> 
15 
1   -0.656477 
2   -0.561224 
3   -0.556087 
4   -0.620779 
5   -0.564081 
6   -0.553382 
7   -0.618503 
8   1.072841 
9   1.070336 
10   0.211453 
11   0.211601 
12   0.388747 
13   0.392712 
14   0.390662 
15   0.392181 
 
$$$$ 
 
