PCCDB-ID:  34141 
public computational chemistry database (PCCDB) project, http://pccdb.org 
 
 30 30  0  0  0  0  0  0  0  0999 V2000 
    0.8936   -0.5959    0.2562 C   0  0  0  0  0  0  0  0  0  0  0  0 
    1.9676    0.8457   -2.2969 C   0  0  0  0  0  0  0  0  0  0  0  0 
    1.7670    2.3566   -0.3020 C   0  0  0  0  0  0  0  0  0  0  0  0 
    2.3288   -0.0974    0.0403 C   0  0  0  0  0  0  0  0  0  0  0  0 
    6.7704   -1.4223   -2.5792 C   0  0  0  0  0  0  0  0  0  0  0  0 
    6.5126   -1.3841   -1.2080 C   0  0  0  0  0  0  0  0  0  0  0  0 
    6.1434   -0.5016   -3.4202 C   0  0  0  0  0  0  0  0  0  0  0  0 
    5.6305   -0.4367   -0.6867 C   0  0  0  0  0  0  0  0  0  0  0  0 
    5.2620    0.4430   -2.8925 C   0  0  0  0  0  0  0  0  0  0  0  0 
    4.0246    1.5176   -0.9499 C   0  0  0  0  0  0  0  0  0  0  0  0 
    4.9817    0.4885   -1.5184 C   0  0  0  0  0  0  0  0  0  0  0  0 
    2.5076    1.1353   -0.8837 C   0  0  0  0  0  0  0  0  0  0  0  0 
    0.8929   -1.4582    0.9329 H   0  0  0  0  0  0  0  0  0  0  0  0 
    0.4260   -0.9190   -0.6803 H   0  0  0  0  0  0  0  0  0  0  0  0 
    0.2505    0.1697    0.7043 H   0  0  0  0  0  0  0  0  0  0  0  0 
    0.8848    0.6811   -2.2814 H   0  0  0  0  0  0  0  0  0  0  0  0 
    2.4373   -0.0412   -2.7358 H   0  0  0  0  0  0  0  0  0  0  0  0 
    2.1581    1.6924   -2.9685 H   0  0  0  0  0  0  0  0  0  0  0  0 
    0.6849    2.1923   -0.2615 H   0  0  0  0  0  0  0  0  0  0  0  0 
    1.9397    3.2480   -0.9176 H   0  0  0  0  0  0  0  0  0  0  0  0 
    2.1099    2.5822    0.7158 H   0  0  0  0  0  0  0  0  0  0  0  0 
    2.9267   -0.9238   -0.3635 H   0  0  0  0  0  0  0  0  0  0  0  0 
    2.7665    0.1434    1.0206 H   0  0  0  0  0  0  0  0  0  0  0  0 
    7.4597   -2.1568   -2.9872 H   0  0  0  0  0  0  0  0  0  0  0  0 
    7.0041   -2.0880   -0.5411 H   0  0  0  0  0  0  0  0  0  0  0  0 
    6.3452   -0.5134   -4.4883 H   0  0  0  0  0  0  0  0  0  0  0  0 
    5.4474   -0.4076    0.3850 H   0  0  0  0  0  0  0  0  0  0  0  0 
    4.7896    1.1639   -3.5557 H   0  0  0  0  0  0  0  0  0  0  0  0 
    4.1062    2.4390   -1.5420 H   0  0  0  0  0  0  0  0  0  0  0  0 
    4.3462    1.7772    0.0678 H   0  0  0  0  0  0  0  0  0  0  0  0 
  1 15  1  0  0  0  0 
  1 13  1  0  0  0  0 
  2 16  1  0  0  0  0 
  2 12  1  0  0  0  0 
  3 19  1  0  0  0  0 
  3 21  1  0  0  0  0 
  4  1  1  0  0  0  0 
  4 23  1  0  0  0  0 
  5  6  2  0  0  0  0 
  6  8  1  0  0  0  0 
  6 25  1  0  0  0  0 
  7  9  2  0  0  0  0 
  7  5  1  0  0  0  0 
  8 27  1  0  0  0  0 
  9 11  1  0  0  0  0 
 10 12  1  0  0  0  0 
 10 30  1  0  0  0  0 
 11 10  1  0  0  0  0 
 11  8  2  0  0  0  0 
 12  3  1  0  0  0  0 
 12  4  1  0  0  0  0 
 14  1  1  0  0  0  0 
 17  2  1  0  0  0  0 
 18  2  1  0  0  0  0 
 20  3  1  0  0  0  0 
 22  4  1  0  0  0  0 
 24  5  1  0  0  0  0 
 26  7  1  0  0  0  0 
 28  9  1  0  0  0  0 
 29 10  1  0  0  0  0 
M  END 
>  <HBA> 
0 
 
>  <HBD> 
0 
 
>  <TPSA> 
0.0 
 
>  <cid> 
34141 
 
>  <dipole> 
0.17 
 
>  <excitation_energy_1> 
5.269 
 
>  <excitation_energy_2> 
5.786 
 
>  <excitation_energy_3> 
5.977 
 
>  <excitation_energy_4> 
6.155 
 
>  <homo_energy> 
-6.389 
 
>  <homo_lumo_gap> 
6.485 
 
>  <logP> 
3.665 
 
>  <lumo_energy> 
0.095 
 
>  <melting_point> 
22.52 
 
>  <molecular_refractivity> 
55.18 
 
>  <oscillator_strength_1> 
0.0003 
 
>  <oscillator_strength_2> 
0.0611 
 
>  <oscillator_strength_3> 
0.0058 
 
>  <oscillator_strength_4> 
0.0058 
 
>  <open_babel_can_smiles> 
CCC(Cc1ccccc1)(C)C 
 
>  <mulliken_charges> 
30 
1   -0.454195 
2   -0.458333 
3   -0.447596 
4   -0.254732 
5   -0.131782 
6   -0.129621 
7   -0.129723 
8   -0.182686 
9   -0.18187 
10   -0.355586 
11   0.175345 
12   0.111132 
13   0.142008 
14   0.146427 
15   0.14396 
16   0.142301 
17   0.152672 
18   0.132646 
19   0.14398 
20   0.137021 
21   0.136414 
22   0.143633 
23   0.120082 
24   0.126581 
25   0.126972 
26   0.127006 
27   0.124055 
28   0.123731 
29   0.135016 
30   0.135144 
 
>  <lowdin_charges> 
30 
1   -0.450506 
2   -0.447873 
3   -0.441806 
4   -0.278273 
5   -0.162526 
6   -0.158993 
7   -0.155529 
8   -0.166121 
9   -0.16884 
10   -0.274915 
11   -0.000895 
12   0.015793 
13   0.15108 
14   0.148542 
15   0.147647 
16   0.146964 
17   0.154703 
18   0.144989 
19   0.147088 
20   0.146911 
21   0.14491 
22   0.149656 
23   0.135739 
24   0.157288 
25   0.157662 
26   0.154528 
27   0.152524 
28   0.155732 
29   0.147795 
30   0.146727 
 
$$$$ 
 
