PCCDB-ID:  11815 
public computational chemistry database (PCCDB) project, http://pccdb.org 
 
 17 18  0  0  0  0  0  0  0  0999 V2000 
    1.9731    1.0785    0.0044 C   0  0  0  0  0  0  0  0  0  0  0  0 
    2.2552   -0.2996    0.0044 C   0  0  0  0  0  0  0  0  0  0  0  0 
    0.6579    1.5421    0.0009 C   0  0  0  0  0  0  0  0  0  0  0  0 
    1.2280   -1.2429    0.0011 C   0  0  0  0  0  0  0  0  0  0  0  0 
   -2.5120   -0.5574   -0.0123 C   0  0  0  0  0  0  0  0  0  0  0  0 
   -0.3675    0.5961   -0.0031 C   0  0  0  0  0  0  0  0  0  0  0  0 
   -0.0867   -0.7759   -0.0028 C   0  0  0  0  0  0  0  0  0  0  0  0 
   -1.8412    0.8222   -0.0086 C   0  0  0  0  0  0  0  0  0  0  0  0 
   -1.3532   -1.5626   -0.0091 C   0  0  0  0  0  0  0  0  0  0  0  0 
   -2.4009    1.9004   -0.0097 O   0  0  0  0  0  0  0  0  0  0  0  0 
   -1.4446   -2.7740   -0.0114 O   0  0  0  0  0  0  0  0  0  0  0  0 
    2.7958    1.7883    0.0076 H   0  0  0  0  0  0  0  0  0  0  0  0 
    3.2906   -0.6291    0.0062 H   0  0  0  0  0  0  0  0  0  0  0  0 
    0.4247    2.6027    0.0009 H   0  0  0  0  0  0  0  0  0  0  0  0 
    1.4304   -2.3097    0.0018 H   0  0  0  0  0  0  0  0  0  0  0  0 
   -3.1495   -0.6877   -0.8947 H   0  0  0  0  0  0  0  0  0  0  0  0 
   -3.1547   -0.6891    0.8662 H   0  0  0  0  0  0  0  0  0  0  0  0 
  1  2  1  0  0  0  0 
  1 12  1  0  0  0  0 
  2 13  1  0  0  0  0 
  3 14  1  0  0  0  0 
  3  1  2  0  0  0  0 
  4 15  1  0  0  0  0 
  4  2  2  0  0  0  0 
  5  9  1  0  0  0  0 
  5  8  1  0  0  0  0 
  5 17  1  0  0  0  0 
  6  7  2  0  0  0  0 
  6  3  1  0  0  0  0 
  7  4  1  0  0  0  0 
  8  6  1  0  0  0  0 
  9  7  1  0  0  0  0 
 10  8  2  0  0  0  0 
 11  9  2  0  0  0  0 
 16  5  1  0  0  0  0 
M  END 
>  <HBA> 
2 
 
>  <HBD> 
0 
 
>  <TPSA> 
34.14 
 
>  <cid> 
11815 
 
>  <dipole> 
3.06 
 
>  <excitation_energy_1> 
3.261 
 
>  <excitation_energy_2> 
3.708 
 
>  <excitation_energy_3> 
4.271 
 
>  <excitation_energy_4> 
4.516 
 
>  <homo_energy> 
-6.724 
 
>  <homo_lumo_gap> 
4.525 
 
>  <logP> 
1.456 
 
>  <lumo_energy> 
-2.199 
 
>  <melting_point> 
97.35 
 
>  <molecular_refractivity> 
39.91 
 
>  <oscillator_strength_1> 
0.0 
 
>  <oscillator_strength_2> 
0.0 
 
>  <oscillator_strength_3> 
0.0 
 
>  <oscillator_strength_4> 
0.0132 
 
>  <open_babel_can_smiles> 
O=C1CC(=O)c2c1cccc2 
 
>  <mulliken_charges> 
17 
1   -0.126573 
2   -0.126594 
3   -0.167471 
4   -0.167589 
5   -0.466158 
6   0.053579 
7   0.054415 
8   0.399373 
9   0.399099 
10   -0.452016 
11   -0.451927 
12   0.150417 
13   0.15039 
14   0.167334 
15   0.167341 
16   0.208176 
17   0.208203 
 
>  <lowdin_charges> 
17 
1   -0.135548 
2   -0.133026 
3   -0.125841 
4   -0.125625 
5   -0.337097 
6   -0.039407 
7   -0.038444 
8   0.153348 
9   0.149539 
10   -0.222203 
11   -0.220577 
12   0.16849 
13   0.166487 
14   0.176421 
15   0.176335 
16   0.193552 
17   0.193597 
 
$$$$ 
 
