PCCDB-ID:  40707 
public computational chemistry database (PCCDB) project, http://pccdb.org 
 
 26 27  0  0  1  0  0  0  0  0999 V2000 
    1.0068    0.3301   -0.1803 C   0  0  0  0  0  0  0  0  0  0  0  0 
    3.4176    0.8684   -0.8752 C   0  0  0  0  0  0  0  0  0  0  0  0 
    3.2641   -1.2642    4.1184 C   0  0  0  0  0  0  0  0  0  0  0  0 
    4.3035   -0.3380    3.4722 C   0  0  0  0  0  0  0  0  0  0  0  0 
    2.1162   -1.6080    3.1526 C   0  0  0  0  0  0  0  0  0  0  0  0 
    5.0252   -1.0535    2.3194 C   0  0  0  0  0  0  0  0  0  0  0  0 
    2.4795    0.0255   -0.0448 C   0  0  0  0  0  0  0  0  0  0  0  0 
    2.5993   -1.9830    1.7412 C   0  0  2  0  0  0  0  0  0  0  0  0 
    4.0626   -1.6793    1.3143 C   0  0  1  0  0  0  0  0  0  0  0  0 
    2.9248   -0.9382    0.7559 C   0  0  0  0  0  0  0  0  0  0  0  0 
    0.7868    1.3668    0.1121 H   0  0  0  0  0  0  0  0  0  0  0  0 
    0.3986   -0.3363    0.4381 H   0  0  0  0  0  0  0  0  0  0  0  0 
    0.6771    0.2249   -1.2237 H   0  0  0  0  0  0  0  0  0  0  0  0 
    3.3263    1.9337   -0.6193 H   0  0  0  0  0  0  0  0  0  0  0  0 
    3.1806    0.7844   -1.9455 H   0  0  0  0  0  0  0  0  0  0  0  0 
    4.4605    0.5710   -0.7320 H   0  0  0  0  0  0  0  0  0  0  0  0 
    2.8517   -0.8066    5.0267 H   0  0  0  0  0  0  0  0  0  0  0  0 
    3.7673   -2.1896    4.4343 H   0  0  0  0  0  0  0  0  0  0  0  0 
    5.0409   -0.0146    4.2173 H   0  0  0  0  0  0  0  0  0  0  0  0 
    3.8090    0.5705    3.1009 H   0  0  0  0  0  0  0  0  0  0  0  0 
    1.4319   -0.7514    3.0892 H   0  0  0  0  0  0  0  0  0  0  0  0 
    1.5301   -2.4381    3.5652 H   0  0  0  0  0  0  0  0  0  0  0  0 
    5.6528   -1.8512    2.7426 H   0  0  0  0  0  0  0  0  0  0  0  0 
    5.7054   -0.3607    1.8054 H   0  0  0  0  0  0  0  0  0  0  0  0 
    2.1850   -2.9137    1.3498 H   0  0  0  0  0  0  0  0  0  0  0  0 
    4.5241   -2.4269    0.6651 H   0  0  0  0  0  0  0  0  0  0  0  0 
  1  7  1  0  0  0  0 
  1 11  1  0  0  0  0 
  1 12  1  0  0  0  0 
  2 16  1  0  0  0  0 
  2 14  1  0  0  0  0 
  2  7  1  0  0  0  0 
  3 18  1  0  0  0  0 
  3 17  1  0  0  0  0 
  4  3  1  0  0  0  0 
  4 19  1  0  0  0  0 
  5 22  1  0  0  0  0 
  5  3  1  0  0  0  0 
  6 23  1  0  0  0  0 
  6  4  1  0  0  0  0 
  7 10  2  0  0  0  0 
  8 25  1  6  0  0  0 
  8  5  1  0  0  0  0 
  9 26  1  6  0  0  0 
  9  8  1  0  0  0  0 
  9  6  1  0  0  0  0 
 10  9  1  0  0  0  0 
 10  8  1  0  0  0  0 
 13  1  1  0  0  0  0 
 15  2  1  0  0  0  0 
 20  4  1  0  0  0  0 
 21  5  1  0  0  0  0 
 24  6  1  0  0  0  0 
M  END 
>  <HBA> 
0 
 
>  <HBD> 
0 
 
>  <TPSA> 
0.0 
 
>  <cid> 
40707 
 
>  <dipole> 
0.1 
 
>  <excitation_energy_1> 
5.58 
 
>  <excitation_energy_2> 
5.959 
 
>  <excitation_energy_3> 
6.112 
 
>  <excitation_energy_4> 
6.173 
 
>  <homo_energy> 
-6.098 
 
>  <homo_lumo_gap> 
6.759 
 
>  <logP> 
3.143 
 
>  <lumo_energy> 
0.661 
 
>  <melting_point> 
32.57 
 
>  <molecular_refractivity> 
45.48 
 
>  <oscillator_strength_1> 
0.0681 
 
>  <oscillator_strength_2> 
0.0699 
 
>  <oscillator_strength_3> 
0.0025 
 
>  <oscillator_strength_4> 
0.003 
 
>  <open_babel_can_smiles> 
CC(=C1[C@@H]2[C@H]1CCCC2)C 
 
>  <mulliken_charges> 
26 
1   -0.50836 
2   -0.507342 
3   -0.253521 
4   -0.273667 
5   -0.261124 
6   -0.245577 
7   0.078922 
8   -0.190861 
9   -0.18573 
10   0.109452 
11   0.14745 
12   0.157411 
13   0.147734 
14   0.147461 
15   0.147366 
16   0.157017 
17   0.127925 
18   0.129328 
19   0.129924 
20   0.137464 
21   0.138717 
22   0.131745 
23   0.128788 
24   0.132662 
25   0.139652 
26   0.137166 
 
>  <lowdin_charges> 
26 
1   -0.437919 
2   -0.433478 
3   -0.27535 
4   -0.282059 
5   -0.273218 
6   -0.270044 
7   -0.009573 
8   -0.164577 
9   -0.16095 
10   -0.068514 
11   0.151093 
12   0.15963 
13   0.151327 
14   0.15053 
15   0.150464 
16   0.156765 
17   0.142778 
18   0.138333 
19   0.145123 
20   0.142913 
21   0.143381 
22   0.147507 
23   0.141543 
24   0.144836 
25   0.154681 
26   0.154779 
 
$$$$ 
 
