PCCDB-ID:  7288 
public computational chemistry database (PCCDB) project, http://pccdb.org 
 
 16 15  0  0  0  0  0  0  0  0999 V2000 
    3.2262   -0.5548   -1.1402 C   0  0  0  0  0  0  0  0  0  0  0  0 
    2.6061    1.5457    3.4769 C   0  0  0  0  0  0  0  0  0  0  0  0 
    2.2124   -0.1023   -0.0911 C   0  0  0  0  0  0  0  0  0  0  0  0 
    1.8972    0.9706    2.2522 C   0  0  0  0  0  0  0  0  0  0  0  0 
    2.8515    0.4875    1.1633 C   0  0  0  0  0  0  0  0  0  0  0  0 
    4.0594    0.5680    1.2890 O   0  0  0  0  0  0  0  0  0  0  0  0 
    2.7171   -0.9697   -2.0164 H   0  0  0  0  0  0  0  0  0  0  0  0 
    3.8949   -1.3191   -0.7334 H   0  0  0  0  0  0  0  0  0  0  0  0 
    3.8509    0.2821   -1.4662 H   0  0  0  0  0  0  0  0  0  0  0  0 
    1.8783    1.8747    4.2260 H   0  0  0  0  0  0  0  0  0  0  0  0 
    3.2307    2.4007    3.2014 H   0  0  0  0  0  0  0  0  0  0  0  0 
    3.2620    0.7994    3.9350 H   0  0  0  0  0  0  0  0  0  0  0  0 
    1.5670   -0.9374    0.2199 H   0  0  0  0  0  0  0  0  0  0  0  0 
    1.5237    0.6489   -0.5056 H   0  0  0  0  0  0  0  0  0  0  0  0 
    1.2201    1.7126    1.8034 H   0  0  0  0  0  0  0  0  0  0  0  0 
    1.2482    0.1273    2.5317 H   0  0  0  0  0  0  0  0  0  0  0  0 
  1  8  1  0  0  0  0 
  1  3  1  0  0  0  0 
  2 12  1  0  0  0  0 
  2 10  1  0  0  0  0 
  3 13  1  0  0  0  0 
  3  5  1  0  0  0  0 
  4 16  1  0  0  0  0 
  4  2  1  0  0  0  0 
  5  6  2  0  0  0  0 
  5  4  1  0  0  0  0 
  7  1  1  0  0  0  0 
  9  1  1  0  0  0  0 
 11  2  1  0  0  0  0 
 14  3  1  0  0  0  0 
 15  4  1  0  0  0  0 
M  END 
>  <HBA> 
1 
 
>  <HBD> 
0 
 
>  <TPSA> 
17.07 
 
>  <cid> 
7288 
 
>  <dipole> 
2.57 
 
>  <excitation_energy_1> 
4.456 
 
>  <excitation_energy_2> 
6.088 
 
>  <excitation_energy_3> 
6.764 
 
>  <excitation_energy_4> 
6.845 
 
>  <homo_energy> 
-6.599 
 
>  <homo_lumo_gap> 
6.373 
 
>  <logP> 
1.375 
 
>  <lumo_energy> 
-0.226 
 
>  <melting_point> 
-4.51 
 
>  <molecular_refractivity> 
26.35 
 
>  <oscillator_strength_1> 
0.0 
 
>  <oscillator_strength_2> 
0.0119 
 
>  <oscillator_strength_3> 
0.0017 
 
>  <oscillator_strength_4> 
0.0 
 
>  <open_babel_can_smiles> 
CCC(=O)CC 
 
>  <mulliken_charges> 
16 
1   -0.432498 
2   -0.432521 
3   -0.348673 
4   -0.348697 
5   0.456971 
6   -0.442986 
7   0.139155 
8   0.160937 
9   0.160508 
10   0.139158 
11   0.160689 
12   0.160749 
13   0.156975 
14   0.156622 
15   0.156848 
16   0.156762 
 
>  <lowdin_charges> 
16 
1   -0.442407 
2   -0.442617 
3   -0.310657 
4   -0.310339 
5   0.159374 
6   -0.235631 
7   0.150506 
8   0.159912 
9   0.15947 
10   0.150823 
11   0.159325 
12   0.159982 
13   0.160604 
14   0.160557 
15   0.160872 
16   0.160226 
 
$$$$ 
 
