PCCDB-ID:  71072 
public computational chemistry database (PCCDB) project, http://pccdb.org 
 
 27 30  0  0  0  0  0  0  0  0999 V2000 
   -4.3813   -1.0790   -0.0036 C   0  0  0  0  0  0  0  0  0  0  0  0 
   -4.5871    0.3238   -0.0040 C   0  0  0  0  0  0  0  0  0  0  0  0 
    4.1370   -1.3308    0.0010 C   0  0  0  0  0  0  0  0  0  0  0  0 
    4.6122   -0.0099    0.0013 C   0  0  0  0  0  0  0  0  0  0  0  0 
   -3.1048   -1.5897   -0.0022 C   0  0  0  0  0  0  0  0  0  0  0  0 
   -3.5136    1.1840   -0.0030 C   0  0  0  0  0  0  0  0  0  0  0  0 
    2.7685   -1.6009    0.0006 C   0  0  0  0  0  0  0  0  0  0  0  0 
    3.7353    1.0780    0.0011 C   0  0  0  0  0  0  0  0  0  0  0  0 
   -0.6480   -1.2530   -0.0003 C   0  0  0  0  0  0  0  0  0  0  0  0 
   -1.0640    1.5754   -0.0012 C   0  0  0  0  0  0  0  0  0  0  0  0 
   -1.9678   -0.7331   -0.0014 C   0  0  0  0  0  0  0  0  0  0  0  0 
   -2.1785    0.6937   -0.0019 C   0  0  0  0  0  0  0  0  0  0  0  0 
    1.8731   -0.5269    0.0010 C   0  0  0  0  0  0  0  0  0  0  0  0 
    0.4257   -0.3858   -0.0003 C   0  0  0  0  0  0  0  0  0  0  0  0 
    2.3794    0.7861    0.0009 C   0  0  0  0  0  0  0  0  0  0  0  0 
    0.1872    1.0199   -0.0007 C   0  0  0  0  0  0  0  0  0  0  0  0 
    1.3715    1.7264    0.0000 O   0  0  0  0  0  0  0  0  0  0  0  0 
   -5.2368   -1.7488   -0.0046 H   0  0  0  0  0  0  0  0  0  0  0  0 
   -5.5994    0.7187   -0.0053 H   0  0  0  0  0  0  0  0  0  0  0  0 
    4.8463   -2.1533    0.0012 H   0  0  0  0  0  0  0  0  0  0  0  0 
    5.6830    0.1730    0.0016 H   0  0  0  0  0  0  0  0  0  0  0  0 
   -2.9429   -2.6652   -0.0014 H   0  0  0  0  0  0  0  0  0  0  0  0 
   -3.6714    2.2599   -0.0029 H   0  0  0  0  0  0  0  0  0  0  0  0 
    2.4069   -2.6254    0.0001 H   0  0  0  0  0  0  0  0  0  0  0  0 
    4.0885    2.1037    0.0006 H   0  0  0  0  0  0  0  0  0  0  0  0 
   -0.5007   -2.3300    0.0007 H   0  0  0  0  0  0  0  0  0  0  0  0 
   -1.2058    2.6515   -0.0008 H   0  0  0  0  0  0  0  0  0  0  0  0 
  1  5  1  0  0  0  0 
  2  1  2  0  0  0  0 
  2  6  1  0  0  0  0 
  3 20  1  0  0  0  0 
  3  4  2  0  0  0  0 
  4 21  1  0  0  0  0 
  5 22  1  0  0  0  0 
  5 11  2  0  0  0  0 
  6 23  1  0  0  0  0 
  6 12  2  0  0  0  0 
  7 13  2  0  0  0  0 
  7  3  1  0  0  0  0 
  8  4  1  0  0  0  0 
  9 14  2  0  0  0  0 
  9 26  1  0  0  0  0 
 10 27  1  0  0  0  0 
 10 16  2  0  0  0  0 
 11  9  1  0  0  0  0 
 12 11  1  0  0  0  0 
 12 10  1  0  0  0  0 
 14 13  1  0  0  0  0 
 15 13  1  0  0  0  0 
 15  8  2  0  0  0  0 
 16 14  1  0  0  0  0 
 16 17  1  0  0  0  0 
 17 15  1  0  0  0  0 
 18  1  1  0  0  0  0 
 19  2  1  0  0  0  0 
 24  7  1  0  0  0  0 
 25  8  1  0  0  0  0 
M  END 
>  <HBA> 
1 
 
>  <HBD> 
0 
 
>  <TPSA> 
13.14 
 
>  <cid> 
71072 
 
>  <dipole> 
0.84 
 
>  <excitation_energy_1> 
3.666 
 
>  <excitation_energy_2> 
4.031 
 
>  <excitation_energy_3> 
4.575 
 
>  <excitation_energy_4> 
4.726 
 
>  <homo_energy> 
-5.532 
 
>  <homo_lumo_gap> 
4.125 
 
>  <logP> 
4.739 
 
>  <lumo_energy> 
-1.407 
 
>  <melting_point> 
137.56 
 
>  <molecular_refractivity> 
71.23 
 
>  <oscillator_strength_1> 
0.0774 
 
>  <oscillator_strength_2> 
0.1532 
 
>  <oscillator_strength_3> 
0.0009 
 
>  <oscillator_strength_4> 
0.5825 
 
>  <open_babel_can_smiles> 
c1ccc2c(c1)cc1c(c2)oc2c1cccc2 
 
>  <mulliken_charges> 
27 
1   -0.139884 
2   -0.136544 
3   -0.145388 
4   -0.134638 
5   -0.18692 
6   -0.192911 
7   -0.188497 
8   -0.203336 
9   -0.282083 
10   -0.291678 
11   0.128707 
12   0.137899 
13   0.083194 
14   0.101191 
15   0.32074 
16   0.337921 
17   -0.55884 
18   0.129438 
19   0.130279 
20   0.131638 
21   0.135156 
22   0.128548 
23   0.129984 
24   0.136545 
25   0.148001 
26   0.135816 
27   0.145661 
 
>  <lowdin_charges> 
27 
1   -0.164116 
2   -0.15603 
3   -0.169017 
4   -0.145354 
5   -0.153285 
6   -0.158012 
7   -0.148922 
8   -0.177186 
9   -0.153202 
10   -0.182858 
11   -0.00469 
12   0.007319 
13   -0.035685 
14   -0.030715 
15   0.098444 
16   0.096536 
17   -0.132015 
18   0.159381 
19   0.158236 
20   0.160784 
21   0.159973 
22   0.155422 
23   0.156084 
24   0.160818 
25   0.170285 
26   0.159175 
27   0.168628 
 
$$$$ 
 
