PCCDB-ID:  44695 
public computational chemistry database (PCCDB) project, http://pccdb.org 
 
 31 30  0  0  1  0  0  0  0  0999 V2000 
    2.4189   -0.2257   -0.9655 C   0  0  0  0  0  0  0  0  0  0  0  0 
    6.6916   -4.4765   -2.5341 C   0  0  0  0  0  0  0  0  0  0  0  0 
    5.9684    0.0592   -5.0414 C   0  0  0  0  0  0  0  0  0  0  0  0 
    2.4428   -1.0093   -2.2833 C   0  0  0  0  0  0  0  0  0  0  0  0 
    6.4907   -2.9739   -2.3094 C   0  0  0  0  0  0  0  0  0  0  0  0 
    3.5428   -0.5634   -3.2657 C   0  0  0  0  0  0  0  0  0  0  0  0 
    5.2801   -2.4152   -3.0719 C   0  0  0  0  0  0  0  0  0  0  0  0 
    6.0502    0.0065   -3.5044 C   0  0  2  0  0  0  0  0  0  0  0  0 
    4.9899   -0.9150   -2.8412 C   0  0  0  0  0  0  0  0  0  0  0  0 
    5.9975    1.3382   -2.8709 N   0  0  0  0  0  0  0  0  0  0  0  0 
    1.5991   -0.5652   -0.3217 H   0  0  0  0  0  0  0  0  0  0  0  0 
    2.2765    0.8470   -1.1474 H   0  0  0  0  0  0  0  0  0  0  0  0 
    3.3507   -0.3414   -0.4014 H   0  0  0  0  0  0  0  0  0  0  0  0 
    7.5512   -4.8548   -1.9689 H   0  0  0  0  0  0  0  0  0  0  0  0 
    6.8662   -4.7001   -3.5940 H   0  0  0  0  0  0  0  0  0  0  0  0 
    5.8086   -5.0463   -2.2187 H   0  0  0  0  0  0  0  0  0  0  0  0 
    6.0466   -0.9335   -5.5013 H   0  0  0  0  0  0  0  0  0  0  0  0 
    6.7874    0.6694   -5.4423 H   0  0  0  0  0  0  0  0  0  0  0  0 
    5.0263    0.5102   -5.3759 H   0  0  0  0  0  0  0  0  0  0  0  0 
    1.4699   -0.8951   -2.7802 H   0  0  0  0  0  0  0  0  0  0  0  0 
    2.5434   -2.0819   -2.0689 H   0  0  0  0  0  0  0  0  0  0  0  0 
    7.4052   -2.4426   -2.6041 H   0  0  0  0  0  0  0  0  0  0  0  0 
    6.3596   -2.7783   -1.2358 H   0  0  0  0  0  0  0  0  0  0  0  0 
    3.4407    0.5228   -3.4041 H   0  0  0  0  0  0  0  0  0  0  0  0 
    3.3417   -1.0092   -4.2499 H   0  0  0  0  0  0  0  0  0  0  0  0 
    4.3964   -2.9964   -2.7748 H   0  0  0  0  0  0  0  0  0  0  0  0 
    5.4074   -2.6070   -4.1476 H   0  0  0  0  0  0  0  0  0  0  0  0 
    7.0350   -0.3982   -3.2385 H   0  0  0  0  0  0  0  0  0  0  0  0 
    5.0877   -0.7157   -1.7657 H   0  0  0  0  0  0  0  0  0  0  0  0 
    5.1282    1.8052   -3.1305 H   0  0  0  0  0  0  0  0  0  0  0  0 
    6.7403    1.9204   -3.2583 H   0  0  0  0  0  0  0  0  0  0  0  0 
  1 13  1  0  0  0  0 
  1 11  1  0  0  0  0 
  2  5  1  0  0  0  0 
  2 16  1  0  0  0  0 
  2 14  1  0  0  0  0 
  3  8  1  0  0  0  0 
  4 21  1  0  0  0  0 
  4  1  1  0  0  0  0 
  5 23  1  0  0  0  0 
  6  9  1  0  0  0  0 
  6  4  1  0  0  0  0 
  7  9  1  0  0  0  0 
  7 26  1  0  0  0  0 
  7  5  1  0  0  0  0 
  8 28  1  1  0  0  0 
  8 10  1  0  0  0  0 
  8  9  1  0  0  0  0 
  9 29  1  0  0  0  0 
 12  1  1  0  0  0  0 
 15  2  1  0  0  0  0 
 17  3  1  0  0  0  0 
 18  3  1  0  0  0  0 
 19  3  1  0  0  0  0 
 20  4  1  0  0  0  0 
 22  5  1  0  0  0  0 
 24  6  1  0  0  0  0 
 25  6  1  0  0  0  0 
 27  7  1  0  0  0  0 
 30 10  1  0  0  0  0 
 31 10  1  0  0  0  0 
M  END 
>  <HBA> 
1 
 
>  <HBD> 
1 
 
>  <TPSA> 
26.02 
 
>  <cid> 
44695 
 
>  <dipole> 
1.21 
 
>  <excitation_energy_1> 
5.656 
 
>  <excitation_energy_2> 
6.214 
 
>  <excitation_energy_3> 
6.308 
 
>  <excitation_energy_4> 
6.503 
 
>  <homo_energy> 
-6.202 
 
>  <homo_lumo_gap> 
8.248 
 
>  <logP> 
3.25 
 
>  <lumo_energy> 
2.046 
 
>  <melting_point> 
25.69 
 
>  <molecular_refractivity> 
48.08 
 
>  <oscillator_strength_1> 
0.0368 
 
>  <oscillator_strength_2> 
0.002 
 
>  <oscillator_strength_3> 
0.0077 
 
>  <oscillator_strength_4> 
0.0007 
 
>  <open_babel_can_smiles> 
CCCC([C@H](N)C)CCC 
 
>  <mulliken_charges> 
31 
1   -0.441596 
2   -0.442078 
3   -0.456515 
4   -0.257537 
5   -0.254766 
6   -0.271635 
7   -0.26665 
8   0.009947 
9   -0.059403 
10   -0.716388 
11   0.140081 
12   0.13963 
13   0.153053 
14   0.141501 
15   0.140047 
16   0.140692 
17   0.142652 
18   0.133272 
19   0.140328 
20   0.129679 
21   0.134594 
22   0.135472 
23   0.133837 
24   0.117119 
25   0.129332 
26   0.130651 
27   0.125646 
28   0.130663 
29   0.139143 
30   0.289241 
31   0.289987 
 
>  <lowdin_charges> 
31 
1   -0.44611 
2   -0.444335 
3   -0.467319 
4   -0.271907 
5   -0.272681 
6   -0.275958 
7   -0.278378 
8   -0.066067 
9   -0.132847 
10   -0.555454 
11   0.149524 
12   0.143762 
13   0.150255 
14   0.149781 
15   0.14409 
16   0.146161 
17   0.148139 
18   0.146128 
19   0.146195 
20   0.141053 
21   0.137513 
22   0.139453 
23   0.138706 
24   0.131243 
25   0.140136 
26   0.141553 
27   0.134525 
28   0.138797 
29   0.145248 
30   0.246619 
31   0.252176 
 
$$$$ 
 
