PCCDB-ID:  70153 
public computational chemistry database (PCCDB) project, http://pccdb.org 
 
 33 33  0  0  0  0  0  0  0  0999 V2000 
    8.1735    2.0289    0.9677 C   0  0  0  0  0  0  0  0  0  0  0  0 
    6.8978    1.2900    1.3849 C   0  0  0  0  0  0  0  0  0  0  0  0 
    6.8125   -0.1359    0.8245 C   0  0  0  0  0  0  0  0  0  0  0  0 
    5.5335   -0.8751    1.2431 C   0  0  0  0  0  0  0  0  0  0  0  0 
    5.3667   -2.2754    0.6295 C   0  0  0  0  0  0  0  0  0  0  0  0 
    6.4085   -3.3052    1.0901 C   0  0  0  0  0  0  0  0  0  0  0  0 
    6.1643   -4.7008    0.5048 C   0  0  0  0  0  0  0  0  0  0  0  0 
   10.4988   -5.4827   -0.8497 C   0  0  0  0  0  0  0  0  0  0  0  0 
    7.1679   -5.7787    0.9739 C   0  0  0  0  0  0  0  0  0  0  0  0 
    9.1149   -5.8186   -0.7360 C   0  0  0  0  0  0  0  0  0  0  0  0 
   11.0182   -4.9778    0.3094 C   0  0  0  0  0  0  0  0  0  0  0  0 
    8.5842   -5.5678    0.5037 C   0  0  0  0  0  0  0  0  0  0  0  0 
    9.8133   -4.9039    1.5568 S   0  0  0  0  0  0  0  0  0  0  0  0 
    8.2039    3.0424    1.3839 H   0  0  0  0  0  0  0  0  0  0  0  0 
    8.2427    2.1153   -0.1238 H   0  0  0  0  0  0  0  0  0  0  0  0 
    9.0696    1.4994    1.3141 H   0  0  0  0  0  0  0  0  0  0  0  0 
    6.0188    1.8617    1.0543 H   0  0  0  0  0  0  0  0  0  0  0  0 
    6.8389    1.2518    2.4821 H   0  0  0  0  0  0  0  0  0  0  0  0 
    7.6973   -0.7003    1.1498 H   0  0  0  0  0  0  0  0  0  0  0  0 
    6.8646   -0.0961   -0.2743 H   0  0  0  0  0  0  0  0  0  0  0  0 
    4.6651   -0.2627    0.9606 H   0  0  0  0  0  0  0  0  0  0  0  0 
    5.5028   -0.9548    2.3401 H   0  0  0  0  0  0  0  0  0  0  0  0 
    5.3984   -2.1948   -0.4675 H   0  0  0  0  0  0  0  0  0  0  0  0 
    4.3635   -2.6514    0.8767 H   0  0  0  0  0  0  0  0  0  0  0  0 
    6.3959   -3.3654    2.1894 H   0  0  0  0  0  0  0  0  0  0  0  0 
    7.4150   -2.9686    0.8142 H   0  0  0  0  0  0  0  0  0  0  0  0 
    6.1883   -4.6473   -0.5922 H   0  0  0  0  0  0  0  0  0  0  0  0 
    5.1536   -5.0371    0.7774 H   0  0  0  0  0  0  0  0  0  0  0  0 
   11.0815   -5.6211   -1.7544 H   0  0  0  0  0  0  0  0  0  0  0  0 
    6.8274   -6.7559    0.6074 H   0  0  0  0  0  0  0  0  0  0  0  0 
    7.1432   -5.8403    2.0695 H   0  0  0  0  0  0  0  0  0  0  0  0 
    8.5316   -6.2429   -1.5477 H   0  0  0  0  0  0  0  0  0  0  0  0 
   12.0297   -4.6501    0.5080 H   0  0  0  0  0  0  0  0  0  0  0  0 
  1 16  1  0  0  0  0 
  1 14  1  0  0  0  0 
  1  2  1  0  0  0  0 
  2 18  1  0  0  0  0 
  3 19  1  0  0  0  0 
  3  4  1  0  0  0  0 
  3  2  1  0  0  0  0 
  4 22  1  0  0  0  0 
  5 24  1  0  0  0  0 
  5  6  1  0  0  0  0 
  5  4  1  0  0  0  0 
  6 25  1  0  0  0  0 
  7 28  1  0  0  0  0 
  7  9  1  0  0  0  0 
  7  6  1  0  0  0  0 
  8 10  1  0  0  0  0 
  8 11  2  0  0  0  0 
  9 31  1  0  0  0  0 
 10 12  2  0  0  0  0 
 11 33  1  0  0  0  0 
 11 13  1  0  0  0  0 
 12  9  1  0  0  0  0 
 12 13  1  0  0  0  0 
 15  1  1  0  0  0  0 
 17  2  1  0  0  0  0 
 20  3  1  0  0  0  0 
 21  4  1  0  0  0  0 
 23  5  1  0  0  0  0 
 26  6  1  0  0  0  0 
 27  7  1  0  0  0  0 
 29  8  1  0  0  0  0 
 30  9  1  0  0  0  0 
 32 10  1  0  0  0  0 
M  END 
>  <HBA> 
1 
 
>  <HBD> 
0 
 
>  <TPSA> 
28.24 
 
>  <cid> 
70153 
 
>  <dipole> 
0.7 
 
>  <excitation_energy_1> 
5.297 
 
>  <excitation_energy_2> 
5.457 
 
>  <excitation_energy_3> 
5.655 
 
>  <excitation_energy_4> 
5.698 
 
>  <homo_energy> 
-5.992 
 
>  <homo_lumo_gap> 
5.883 
 
>  <logP> 
4.651 
 
>  <lumo_energy> 
-0.109 
 
>  <melting_point> 
1.73 
 
>  <molecular_refractivity> 
62.93 
 
>  <oscillator_strength_1> 
0.1163 
 
>  <oscillator_strength_2> 
0.0208 
 
>  <oscillator_strength_3> 
0.0477 
 
>  <oscillator_strength_4> 
0.0316 
 
>  <open_babel_can_smiles> 
CCCCCCCCc1cccs1 
 
>  <mulliken_charges> 
33 
1   -0.441681 
2   -0.246631 
3   -0.248718 
4   -0.2545 
5   -0.255448 
6   -0.261222 
7   -0.24424 
8   -0.097235 
9   -0.32348 
10   -0.125163 
11   -0.348424 
12   -0.116697 
13   0.231865 
14   0.140355 
15   0.140758 
16   0.141943 
17   0.128623 
18   0.129702 
19   0.136276 
20   0.125203 
21   0.125899 
22   0.125876 
23   0.12695 
24   0.124982 
25   0.123919 
26   0.157044 
27   0.135533 
28   0.129672 
29   0.137119 
30   0.15447 
31   0.147918 
32   0.130942 
33   0.168392 
 
>  <lowdin_charges> 
33 
1   -0.442137 
2   -0.270246 
3   -0.275837 
4   -0.27338 
5   -0.271533 
6   -0.278028 
7   -0.267549 
8   -0.181546 
9   -0.268173 
10   -0.201562 
11   -0.327612 
12   -0.155203 
13   0.297079 
14   0.147661 
15   0.143966 
16   0.146875 
17   0.138284 
18   0.136288 
19   0.141423 
20   0.134437 
21   0.140238 
22   0.134913 
23   0.135415 
24   0.138045 
25   0.134184 
26   0.149044 
27   0.140121 
28   0.139736 
29   0.1638 
30   0.158142 
31   0.151612 
32   0.161878 
33   0.179665 
 
$$$$ 
 
