PCCDB-ID:  44452 
public computational chemistry database (PCCDB) project, http://pccdb.org 
 
 34 34  0  0  1  0  0  0  0  0999 V2000 
    2.5523    1.2426   -2.3023 C   0  0  0  0  0  0  0  0  0  0  0  0 
    3.5479   -1.2459   -3.2331 C   0  0  0  0  0  0  0  0  0  0  0  0 
    2.4319   -2.2773   -1.3572 C   0  0  0  0  0  0  0  0  0  0  0  0 
    3.9984   -2.5012   -3.6402 C   0  0  0  0  0  0  0  0  0  0  0  0 
    2.8826   -3.5313   -1.7636 C   0  0  0  0  0  0  0  0  0  0  0  0 
    5.9319   -7.0303   -3.7914 C   0  0  0  0  0  0  0  0  0  0  0  0 
    3.8172   -6.0501   -2.7358 C   0  0  0  0  0  0  0  0  0  0  0  0 
    4.4237   -7.2258   -3.5110 C   0  0  2  0  0  0  0  0  0  0  0  0 
    2.7573   -1.1269   -2.0830 C   0  0  0  0  0  0  0  0  0  0  0  0 
    3.6729   -3.6506   -2.9148 C   0  0  0  0  0  0  0  0  0  0  0  0 
    6.9935   -7.1173   -1.5439 C   0  0  0  0  0  0  0  0  0  0  0  0 
    6.4658   -8.2716   -1.3040 N   0  0  0  0  0  0  0  0  0  0  0  0 
    7.8254   -6.3952   -0.6868 N   0  0  0  0  0  0  0  0  0  0  0  0 
    6.7418   -6.4485   -2.7216 N   0  0  0  0  0  0  0  0  0  0  0  0 
    4.1268   -8.4264   -2.8313 O   0  0  0  0  0  0  0  0  0  0  0  0 
    2.2602    0.0529   -1.5927 O   0  0  0  0  0  0  0  0  0  0  0  0 
    4.1741   -4.8338   -3.3972 O   0  0  0  0  0  0  0  0  0  0  0  0 
    2.0646    2.0495   -1.7516 H   0  0  0  0  0  0  0  0  0  0  0  0 
    2.1550    1.2136   -3.3264 H   0  0  0  0  0  0  0  0  0  0  0  0 
    3.6331    1.4371   -2.3440 H   0  0  0  0  0  0  0  0  0  0  0  0 
    3.8166   -0.3747   -3.8197 H   0  0  0  0  0  0  0  0  0  0  0  0 
    1.8179   -2.1732   -0.4679 H   0  0  0  0  0  0  0  0  0  0  0  0 
    4.6074   -2.6043   -4.5334 H   0  0  0  0  0  0  0  0  0  0  0  0 
    2.6150   -4.4043   -1.1798 H   0  0  0  0  0  0  0  0  0  0  0  0 
    6.0520   -6.3671   -4.6523 H   0  0  0  0  0  0  0  0  0  0  0  0 
    6.3534   -8.0059   -4.0530 H   0  0  0  0  0  0  0  0  0  0  0  0 
    4.2001   -6.0532   -1.7059 H   0  0  0  0  0  0  0  0  0  0  0  0 
    2.7270   -6.1657   -2.6965 H   0  0  0  0  0  0  0  0  0  0  0  0 
    3.9279   -7.2845   -4.4898 H   0  0  0  0  0  0  0  0  0  0  0  0 
    6.8519   -8.7040   -0.4658 H   0  0  0  0  0  0  0  0  0  0  0  0 
    8.1294   -6.8992    0.1361 H   0  0  0  0  0  0  0  0  0  0  0  0 
    8.5838   -5.9003   -1.1418 H   0  0  0  0  0  0  0  0  0  0  0  0 
    6.6664   -5.4426   -2.6346 H   0  0  0  0  0  0  0  0  0  0  0  0 
    4.8563   -8.5615   -2.1777 H   0  0  0  0  0  0  0  0  0  0  0  0 
  1 18  1  0  0  0  0 
  1 16  1  0  0  0  0 
  2  9  1  0  0  0  0 
  3 22  1  0  0  0  0 
  4  2  2  0  0  0  0 
  4 10  1  0  0  0  0 
  5  3  1  0  0  0  0 
  5 24  1  0  0  0  0 
  6  8  1  0  0  0  0 
  6 14  1  0  0  0  0 
  7 28  1  0  0  0  0 
  7 27  1  0  0  0  0 
  8 29  1  6  0  0  0 
  8 15  1  0  0  0  0 
  8  7  1  0  0  0  0 
  9 16  1  0  0  0  0 
  9  3  2  0  0  0  0 
 10  5  2  0  0  0  0 
 11 12  1  0  0  0  0 
 11 13  2  0  0  0  0 
 12 30  1  0  0  0  0 
 13 31  1  0  0  0  0 
 14 33  1  0  0  0  0 
 14 11  1  0  0  0  0 
 15 34  1  0  0  0  0 
 17 10  1  0  0  0  0 
 17  7  1  0  0  0  0 
 19  1  1  0  0  0  0 
 20  1  1  0  0  0  0 
 21  2  1  0  0  0  0 
 23  4  1  0  0  0  0 
 25  6  1  0  0  0  0 
 26  6  1  0  0  0  0 
 32 13  1  0  0  0  0 
M  RAD  1  12   2 
M  END 
>  <HBA> 
6 
 
>  <HBD> 
3 
 
>  <TPSA> 
103.09 
 
>  <cid> 
44452 
 
>  <dipole> 
5.24 
 
>  <excitation_energy_1> 
4.6 
 
>  <excitation_energy_2> 
4.678 
 
>  <excitation_energy_3> 
5.029 
 
>  <excitation_energy_4> 
5.333 
 
>  <homo_energy> 
-5.32 
 
>  <homo_lumo_gap> 
5.347 
 
>  <logP> 
1.109 
 
>  <lumo_energy> 
0.027 
 
>  <melting_point> 
157.52 
 
>  <molecular_refractivity> 
64.11 
 
>  <oscillator_strength_1> 
0.051 
 
>  <oscillator_strength_2> 
0.0066 
 
>  <oscillator_strength_3> 
0.0022 
 
>  <oscillator_strength_4> 
0.0089 
 
>  <open_babel_can_smiles> 
COc1ccc(cc1)OC[C@@H](CNC(=[NH2])[NH])O 
 
>  <mulliken_charges> 
34 
1   -0.21178 
2   -0.196719 
3   -0.184365 
4   -0.191529 
5   -0.193799 
6   -0.159755 
7   -0.054939 
8   0.127195 
9   0.37278 
10   0.377892 
11   0.637181 
12   -0.695763 
13   -0.755491 
14   -0.603105 
15   -0.668619 
16   -0.512146 
17   -0.549145 
18   0.167223 
19   0.14891 
20   0.146895 
21   0.130733 
22   0.138853 
23   0.131394 
24   0.142775 
25   0.152513 
26   0.174011 
27   0.140442 
28   0.154074 
29   0.131112 
30   0.276694 
31   0.32581 
32   0.331054 
33   0.336935 
34   0.432677 
 
>  <lowdin_charges> 
34 
1   -0.275424 
2   -0.204863 
3   -0.172149 
4   -0.178073 
5   -0.200207 
6   -0.21694 
7   -0.146088 
8   -0.016174 
9   0.085577 
10   0.084507 
11   0.137256 
12   -0.488777 
13   -0.500521 
14   -0.294757 
15   -0.486834 
16   -0.206189 
17   -0.221875 
18   0.162487 
19   0.141795 
20   0.139964 
21   0.162952 
22   0.166885 
23   0.16291 
24   0.167843 
25   0.159237 
26   0.165494 
27   0.138256 
28   0.147078 
29   0.141434 
30   0.254165 
31   0.281018 
32   0.284793 
33   0.282625 
34   0.342595 
 
$$$$ 
 
