PCCDB-ID:  7846 
public computational chemistry database (PCCDB) project, http://pccdb.org 
 
 10  9  0  0  0  0  0  0  0  0999 V2000 
    0.9304   -0.0865   -0.0571 C   0  0  0  0  0  0  0  0  0  0  0  0 
    4.1812    1.3634    0.0337 C   0  0  0  0  0  0  0  0  0  0  0  0 
    2.1382   -0.0845   -0.0562 C   0  0  0  0  0  0  0  0  0  0  0  0 
    3.6022   -0.0604   -0.0547 C   0  0  0  0  0  0  0  0  0  0  0  0 
   -0.1356   -0.0892   -0.0582 H   0  0  0  0  0  0  0  0  0  0  0  0 
    5.2761    1.3302    0.0292 H   0  0  0  0  0  0  0  0  0  0  0  0 
    3.8561    1.8618    0.9524 H   0  0  0  0  0  0  0  0  0  0  0  0 
    3.8516    1.9714   -0.8146 H   0  0  0  0  0  0  0  0  0  0  0  0 
    3.9730   -0.6613    0.7870 H   0  0  0  0  0  0  0  0  0  0  0  0 
    3.9723   -0.5522   -0.9648 H   0  0  0  0  0  0  0  0  0  0  0  0 
  1  3  3  0  0  0  0 
  2  7  1  0  0  0  0 
  3  4  1  0  0  0  0 
  4  2  1  0  0  0  0 
  4  9  1  0  0  0  0 
  5  1  1  0  0  0  0 
  6  2  1  0  0  0  0 
  8  2  1  0  0  0  0 
 10  4  1  0  0  0  0 
M  END 
>  <HBA> 
0 
 
>  <HBD> 
0 
 
>  <TPSA> 
0.0 
 
>  <cid> 
7846 
 
>  <dipole> 
0.68 
 
>  <excitation_energy_1> 
6.408 
 
>  <excitation_energy_2> 
6.576 
 
>  <excitation_energy_3> 
6.658 
 
>  <excitation_energy_4> 
6.93 
 
>  <homo_energy> 
-7.018 
 
>  <homo_lumo_gap> 
8.572 
 
>  <logP> 
1.03 
 
>  <lumo_energy> 
1.554 
 
>  <melting_point> 
-7.89 
 
>  <molecular_refractivity> 
19.5 
 
>  <oscillator_strength_1> 
0.0005 
 
>  <oscillator_strength_2> 
0.0247 
 
>  <oscillator_strength_3> 
0.0001 
 
>  <oscillator_strength_4> 
0.0421 
 
>  <open_babel_can_smiles> 
CCC#C 
 
>  <mulliken_charges> 
10 
1   -0.484761 
2   -0.437099 
3   0.323434 
4   -0.393178 
5   0.183508 
6   0.147454 
7   0.159719 
8   0.15976 
9   0.170574 
10   0.170589 
 
>  <lowdin_charges> 
10 
1   -0.264129 
2   -0.434362 
3   -0.040708 
4   -0.259716 
5   0.20069 
6   0.149902 
7   0.157131 
8   0.157593 
9   0.166984 
10   0.166615 
 
$$$$ 
 
