PCCDB-ID:  24047 
public computational chemistry database (PCCDB) project, http://pccdb.org 
 
 26 26  0  0  1  0  0  0  0  0999 V2000 
    5.4082   -2.4486   -0.8157 C   0  0  0  0  0  0  0  0  0  0  0  0 
    4.5810   -1.1620   -0.7571 C   0  0  0  0  0  0  0  0  0  0  0  0 
    2.2516   -1.1068   -3.2688 C   0  0  0  0  0  0  0  0  0  0  0  0 
    2.5857   -3.3391   -2.4113 C   0  0  0  0  0  0  0  0  0  0  0  0 
    1.8939   -1.6235   -4.5106 C   0  0  0  0  0  0  0  0  0  0  0  0 
    2.2273   -3.8745   -3.6459 C   0  0  0  0  0  0  0  0  0  0  0  0 
    2.6077   -1.9482   -2.2020 C   0  0  0  0  0  0  0  0  0  0  0  0 
    1.8879   -3.0058   -4.6801 C   0  0  0  0  0  0  0  0  0  0  0  0 
    3.0451   -1.3410   -0.8765 C   0  0  1  0  0  0  0  0  0  0  0  0 
    2.4694   -2.0536    0.3635 C   0  0  0  0  0  0  0  0  0  0  0  0 
    1.5050   -3.5645   -5.9879 N   0  0  0  0  0  0  0  0  0  0  0  0 
    3.0644   -2.1728    1.4047 O   0  0  0  0  0  0  0  0  0  0  0  0 
    1.1905   -2.4980    0.2577 O   0  0  0  0  0  0  0  0  0  0  0  0 
    1.2080   -2.7718   -6.8806 O   0  0  0  0  0  0  0  0  0  0  0  0 
    1.5062   -4.7889   -6.1066 O   0  0  0  0  0  0  0  0  0  0  0  0 
    6.4713   -2.2128   -0.6979 H   0  0  0  0  0  0  0  0  0  0  0  0 
    5.2924   -2.9698   -1.7723 H   0  0  0  0  0  0  0  0  0  0  0  0 
    5.1289   -3.1316   -0.0077 H   0  0  0  0  0  0  0  0  0  0  0  0 
    4.8979   -0.4789   -1.5549 H   0  0  0  0  0  0  0  0  0  0  0  0 
    4.7683   -0.6553    0.1949 H   0  0  0  0  0  0  0  0  0  0  0  0 
    2.2584   -0.0294   -3.1255 H   0  0  0  0  0  0  0  0  0  0  0  0 
    2.8474   -4.0134   -1.6012 H   0  0  0  0  0  0  0  0  0  0  0  0 
    1.6178   -0.9808   -5.3374 H   0  0  0  0  0  0  0  0  0  0  0  0 
    2.2069   -4.9438   -3.8164 H   0  0  0  0  0  0  0  0  0  0  0  0 
    2.6101   -0.3308   -0.8296 H   0  0  0  0  0  0  0  0  0  0  0  0 
    0.8627   -2.3580   -0.6475 H   0  0  0  0  0  0  0  0  0  0  0  0 
  1  2  1  0  0  0  0 
  1 16  1  0  0  0  0 
  1 18  1  0  0  0  0 
  2 20  1  0  0  0  0 
  3 21  1  0  0  0  0 
  3  7  2  0  0  0  0 
  4  7  1  0  0  0  0 
  4 22  1  0  0  0  0 
  5  3  1  0  0  0  0 
  6  4  2  0  0  0  0 
  7  9  1  0  0  0  0 
  8  5  2  0  0  0  0 
  8  6  1  0  0  0  0 
  9 25  1  1  0  0  0 
  9  2  1  0  0  0  0 
  9 10  1  0  0  0  0 
 10 12  2  0  0  0  0 
 11  8  1  0  0  0  0 
 13 10  1  0  0  0  0 
 14 11  2  0  0  0  0 
 15 11  2  0  0  0  0 
 17  1  1  0  0  0  0 
 19  2  1  0  0  0  0 
 23  5  1  0  0  0  0 
 24  6  1  0  0  0  0 
 26 13  1  0  0  0  0 
M  END 
>  <HBA> 
2 
 
>  <HBD> 
1 
 
>  <TPSA> 
83.12 
 
>  <cid> 
24047 
 
>  <dipole> 
2.74 
 
>  <excitation_energy_1> 
3.726 
 
>  <excitation_energy_2> 
4.236 
 
>  <excitation_energy_3> 
4.289 
 
>  <excitation_energy_4> 
4.347 
 
>  <homo_energy> 
-7.578 
 
>  <homo_lumo_gap> 
4.814 
 
>  <logP> 
2.696 
 
>  <lumo_energy> 
-2.765 
 
>  <melting_point> 
122.12 
 
>  <molecular_refractivity> 
56.42 
 
>  <oscillator_strength_1> 
0.0 
 
>  <oscillator_strength_2> 
0.0002 
 
>  <oscillator_strength_3> 
0.1207 
 
>  <oscillator_strength_4> 
0.0245 
 
>  <open_babel_can_smiles> 
CC[C@@H](c1ccc(cc1)N(=O)=O)C(=O)O 
 
>  <mulliken_charges> 
26 
1   -0.462935 
2   -0.239364 
3   -0.196724 
4   -0.193019 
5   -0.144091 
6   -0.149887 
7   0.12434 
8   0.274007 
9   -0.286842 
10   0.605448 
11   0.38278 
12   -0.442367 
13   -0.565704 
14   -0.390312 
15   -0.389614 
16   0.154744 
17   0.147204 
18   0.171833 
19   0.138277 
20   0.170812 
21   0.151973 
22   0.16934 
23   0.189977 
24   0.192379 
25   0.174083 
26   0.413664 
 
>  <lowdin_charges> 
26 
1   -0.452437 
2   -0.263583 
3   -0.156093 
4   -0.163561 
5   -0.134483 
6   -0.13165 
7   -0.003822 
8   0.004035 
9   -0.170789 
10   0.192729 
11   0.306952 
12   -0.232352 
13   -0.351099 
14   -0.24286 
15   -0.238829 
16   0.157222 
17   0.14918 
18   0.161957 
19   0.148093 
20   0.164505 
21   0.166176 
22   0.176733 
23   0.192252 
24   0.190631 
25   0.172451 
26   0.358641 
 
$$$$ 
 
