PCCDB-ID:  7746 
public computational chemistry database (PCCDB) project, http://pccdb.org 
 
 17 16  0  0  1  0  0  0  0  0999 V2000 
    1.1649    0.3167    0.1483 C   0  0  0  0  0  0  0  0  0  0  0  0 
    5.9464   -1.1965    1.5465 C   0  0  0  0  0  0  0  0  0  0  0  0 
    2.6917    0.2530    0.0305 C   0  0  0  0  0  0  0  0  0  0  0  0 
    5.4012   -1.1470    0.4692 C   0  0  0  0  0  0  0  0  0  0  0  0 
    3.1760   -1.0237   -0.6673 C   0  0  0  0  0  0  0  0  0  0  0  0 
    4.7056   -1.1209   -0.8289 C   0  0  2  0  0  0  0  0  0  0  0  0 
    5.0741   -2.2410   -1.6380 O   0  0  0  0  0  0  0  0  0  0  0  0 
    0.8437    1.2391    0.6450 H   0  0  0  0  0  0  0  0  0  0  0  0 
    0.7763   -0.5278    0.7303 H   0  0  0  0  0  0  0  0  0  0  0  0 
    0.6890    0.2857   -0.8392 H   0  0  0  0  0  0  0  0  0  0  0  0 
    6.4359   -1.2296    2.4935 H   0  0  0  0  0  0  0  0  0  0  0  0 
    3.1437    0.3162    1.0279 H   0  0  0  0  0  0  0  0  0  0  0  0 
    3.0509    1.1285   -0.5289 H   0  0  0  0  0  0  0  0  0  0  0  0 
    2.7508   -1.0895   -1.6766 H   0  0  0  0  0  0  0  0  0  0  0  0 
    2.8270   -1.9068   -0.1126 H   0  0  0  0  0  0  0  0  0  0  0  0 
    5.0538   -0.2498   -1.3981 H   0  0  0  0  0  0  0  0  0  0  0  0 
    4.8773   -3.0408   -1.1236 H   0  0  0  0  0  0  0  0  0  0  0  0 
  1  8  1  0  0  0  0 
  1  9  1  0  0  0  0 
  2 11  1  0  0  0  0 
  3  1  1  0  0  0  0 
  3 12  1  0  0  0  0 
  4  2  3  0  0  0  0 
  5 15  1  0  0  0  0 
  5  3  1  0  0  0  0 
  6 16  1  6  0  0  0 
  6  5  1  0  0  0  0 
  6  4  1  0  0  0  0 
  7 17  1  0  0  0  0 
  7  6  1  0  0  0  0 
 10  1  1  0  0  0  0 
 13  3  1  0  0  0  0 
 14  5  1  0  0  0  0 
M  END 
>  <HBA> 
1 
 
>  <HBD> 
1 
 
>  <TPSA> 
20.23 
 
>  <cid> 
7746 
 
>  <dipole> 
1.62 
 
>  <excitation_energy_1> 
6.188 
 
>  <excitation_energy_2> 
6.473 
 
>  <excitation_energy_3> 
6.685 
 
>  <excitation_energy_4> 
6.827 
 
>  <homo_energy> 
-7.176 
 
>  <homo_lumo_gap> 
8.038 
 
>  <logP> 
0.781 
 
>  <lumo_energy> 
0.863 
 
>  <melting_point> 
9.4 
 
>  <molecular_refractivity> 
30.28 
 
>  <oscillator_strength_1> 
0.0031 
 
>  <oscillator_strength_2> 
0.019 
 
>  <oscillator_strength_3> 
0.0142 
 
>  <oscillator_strength_4> 
0.0214 
 
>  <open_babel_can_smiles> 
CCC[C@@H](C#C)O 
 
>  <mulliken_charges> 
17 
1   -0.442201 
2   -0.490278 
3   -0.25959 
4   0.320836 
5   -0.262883 
6   0.00057 
7   -0.610641 
8   0.145578 
9   0.143715 
10   0.144033 
11   0.192515 
12   0.150211 
13   0.133613 
14   0.149457 
15   0.127718 
16   0.167843 
17   0.389505 
 
>  <lowdin_charges> 
17 
1   -0.443649 
2   -0.248789 
3   -0.275876 
4   -0.055507 
5   -0.283499 
6   0.009112 
7   -0.448807 
8   0.151771 
9   0.148361 
10   0.14706 
11   0.206106 
12   0.149776 
13   0.14184 
14   0.151418 
15   0.141823 
16   0.164163 
17   0.344696 
 
$$$$ 
 
