PCCDB-ID:  53302 
public computational chemistry database (PCCDB) project, http://pccdb.org 
 
 25 27  0  0  0  0  0  0  0  0999 V2000 
    0.9816    0.0534   -0.0508 C   0  0  0  0  0  0  0  0  0  0  0  0 
    9.0581    1.6604   -0.0450 C   0  0  0  0  0  0  0  0  0  0  0  0 
    8.9393    0.2371   -0.0291 C   0  0  0  0  0  0  0  0  0  0  0  0 
    7.9384    2.4553   -0.0566 C   0  0  0  0  0  0  0  0  0  0  0  0 
    7.7128   -0.3576   -0.0255 C   0  0  0  0  0  0  0  0  0  0  0  0 
    3.1450    1.3242   -0.0567 C   0  0  0  0  0  0  0  0  0  0  0  0 
    2.4844    0.1289   -0.0457 C   0  0  0  0  0  0  0  0  0  0  0  0 
    4.5735    1.3601   -0.0531 C   0  0  0  0  0  0  0  0  0  0  0  0 
    6.6505    1.8711   -0.0537 C   0  0  0  0  0  0  0  0  0  0  0  0 
    3.2141   -1.1584   -0.0313 C   0  0  0  0  0  0  0  0  0  0  0  0 
    5.2508    0.1451   -0.0368 C   0  0  0  0  0  0  0  0  0  0  0  0 
    2.7346   -2.3562   -0.0234 N   0  0  0  0  0  0  0  0  0  0  0  0 
    5.4459    2.4185   -0.0635 N   0  0  0  0  0  0  0  0  0  0  0  0 
    4.6175   -1.0606   -0.0265 N   0  0  0  0  0  0  0  0  0  0  0  0 
    6.5838    0.4371   -0.0377 N   0  0  0  0  0  0  0  0  0  0  0  0 
    0.5409    1.0540   -0.0601 H   0  0  0  0  0  0  0  0  0  0  0  0 
    0.6022   -0.4750    0.8344 H   0  0  0  0  0  0  0  0  0  0  0  0 
    0.6091   -0.4881   -0.9310 H   0  0  0  0  0  0  0  0  0  0  0  0 
   10.0454    2.1107   -0.0474 H   0  0  0  0  0  0  0  0  0  0  0  0 
    9.8247   -0.3890   -0.0205 H   0  0  0  0  0  0  0  0  0  0  0  0 
    7.9966    3.5380   -0.0698 H   0  0  0  0  0  0  0  0  0  0  0  0 
    7.5584   -1.4303   -0.0129 H   0  0  0  0  0  0  0  0  0  0  0  0 
    2.5928    2.2601   -0.0675 H   0  0  0  0  0  0  0  0  0  0  0  0 
    1.7161   -2.3374   -0.0283 H   0  0  0  0  0  0  0  0  0  0  0  0 
    5.1050   -1.9476   -0.0154 H   0  0  0  0  0  0  0  0  0  0  0  0 
  1  7  1  0  0  0  0 
  1 17  1  0  0  0  0 
  2  3  1  0  0  0  0 
  3  5  2  0  0  0  0 
  3 20  1  0  0  0  0 
  4  9  1  0  0  0  0 
  4  2  2  0  0  0  0 
  5 22  1  0  0  0  0 
  6  8  1  0  0  0  0 
  6  7  2  0  0  0  0 
  7 10  1  0  0  0  0 
  8 11  2  0  0  0  0 
  9 15  1  0  0  0  0 
 10 14  1  0  0  0  0 
 10 12  2  0  0  0  0 
 11 14  1  0  0  0  0 
 13  9  2  0  0  0  0 
 13  8  1  0  0  0  0 
 14 25  1  0  0  0  0 
 15 11  1  0  0  0  0 
 15  5  1  0  0  0  0 
 16  1  1  0  0  0  0 
 18  1  1  0  0  0  0 
 19  2  1  0  0  0  0 
 21  4  1  0  0  0  0 
 23  6  1  0  0  0  0 
 24 12  1  0  0  0  0 
M  END 
>  <HBA> 
4 
 
>  <HBD> 
1 
 
>  <TPSA> 
56.21 
 
>  <cid> 
53302 
 
>  <dipole> 
2.02 
 
>  <excitation_energy_1> 
2.997 
 
>  <excitation_energy_2> 
4.055 
 
>  <excitation_energy_3> 
4.139 
 
>  <excitation_energy_4> 
4.211 
 
>  <homo_energy> 
-4.887 
 
>  <homo_lumo_gap> 
3.434 
 
>  <logP> 
2.354 
 
>  <lumo_energy> 
-1.453 
 
>  <melting_point> 
172.22 
 
>  <molecular_refractivity> 
59.86 
 
>  <oscillator_strength_1> 
0.21 
 
>  <oscillator_strength_2> 
0.0006 
 
>  <oscillator_strength_3> 
0.0537 
 
>  <oscillator_strength_4> 
0.0 
 
>  <open_babel_can_smiles> 
Cc1cc2nc3n(c2[nH]c1=N)cccc3 
 
>  <mulliken_charges> 
25 
1   -0.550663 
2   -0.125032 
3   -0.188958 
4   -0.183865 
5   0.063463 
6   -0.192476 
7   0.120847 
8   0.212838 
9   0.519419 
10   0.448914 
11   0.602675 
12   -0.679338 
13   -0.584636 
14   -0.762653 
15   -0.579801 
16   0.16318 
17   0.166406 
18   0.166495 
19   0.143353 
20   0.148444 
21   0.160469 
22   0.161868 
23   0.148361 
24   0.286097 
25   0.334592 
 
>  <lowdin_charges> 
25 
1   -0.442485 
2   -0.165755 
3   -0.176848 
4   -0.153015 
5   -0.11272 
6   -0.140067 
7   -0.04112 
8   -0.020418 
9   0.069631 
10   0.091534 
11   0.054571 
12   -0.465282 
13   -0.197666 
14   -0.210129 
15   0.018859 
16   0.162476 
17   0.161246 
18   0.161308 
19   0.166115 
20   0.171969 
21   0.178264 
22   0.167048 
23   0.171145 
24   0.253394 
25   0.297944 
 
$$$$ 
 
