PCCDB-ID:  16701 
public computational chemistry database (PCCDB) project, http://pccdb.org 
 
 26 26  0  0  0  0  0  0  0  0999 V2000 
   -0.3608    4.1436    2.7718 C   0  0  0  0  0  0  0  0  0  0  0  0 
    1.2348    1.1097    8.3826 C   0  0  0  0  0  0  0  0  0  0  0  0 
    1.5732    2.2795    7.7023 C   0  0  0  0  0  0  0  0  0  0  0  0 
    1.3262   -0.1191    7.7240 C   0  0  0  0  0  0  0  0  0  0  0  0 
    1.3876    0.6327    3.2526 C   0  0  0  0  0  0  0  0  0  0  0  0 
    0.2670    1.6769    3.2361 C   0  0  0  0  0  0  0  0  0  0  0  0 
    1.9973    2.2190    6.3726 C   0  0  0  0  0  0  0  0  0  0  0  0 
    1.7500   -0.1730    6.3967 C   0  0  0  0  0  0  0  0  0  0  0  0 
    2.5314    0.9309    4.2485 C   0  0  0  0  0  0  0  0  0  0  0  0 
    0.6640    3.0272    2.6484 C   0  0  0  0  0  0  0  0  0  0  0  0 
    2.0911    0.9948    5.6969 C   0  0  0  0  0  0  0  0  0  0  0  0 
    1.7379    3.2090    2.1038 O   0  0  0  0  0  0  0  0  0  0  0  0 
   -0.4763    4.4264    3.8262 H   0  0  0  0  0  0  0  0  0  0  0  0 
   -1.3469    3.8168    2.4203 H   0  0  0  0  0  0  0  0  0  0  0  0 
   -0.0323    5.0141    2.2004 H   0  0  0  0  0  0  0  0  0  0  0  0 
    0.9093    1.1522    9.4186 H   0  0  0  0  0  0  0  0  0  0  0  0 
    1.5140    3.2408    8.2066 H   0  0  0  0  0  0  0  0  0  0  0  0 
    1.0705   -1.0370    8.2475 H   0  0  0  0  0  0  0  0  0  0  0  0 
    1.8165    0.5568    2.2472 H   0  0  0  0  0  0  0  0  0  0  0  0 
    0.9480   -0.3444    3.4898 H   0  0  0  0  0  0  0  0  0  0  0  0 
   -0.1396    1.8378    4.2440 H   0  0  0  0  0  0  0  0  0  0  0  0 
   -0.5822    1.3100    2.6391 H   0  0  0  0  0  0  0  0  0  0  0  0 
    2.2707    3.1349    5.8525 H   0  0  0  0  0  0  0  0  0  0  0  0 
    1.8263   -1.1363    5.8960 H   0  0  0  0  0  0  0  0  0  0  0  0 
    3.0100    1.8725    3.9620 H   0  0  0  0  0  0  0  0  0  0  0  0 
    3.2905    0.1460    4.1336 H   0  0  0  0  0  0  0  0  0  0  0  0 
  1 13  1  0  0  0  0 
  2 16  1  0  0  0  0 
  3 17  1  0  0  0  0 
  3  2  2  0  0  0  0 
  4 18  1  0  0  0  0 
  4  2  1  0  0  0  0 
  5 20  1  0  0  0  0 
  5  9  1  0  0  0  0 
  6  5  1  0  0  0  0 
  6 21  1  0  0  0  0 
  7  3  1  0  0  0  0 
  8  4  2  0  0  0  0 
  9 11  1  0  0  0  0 
 10  1  1  0  0  0  0 
 10  6  1  0  0  0  0 
 11  7  2  0  0  0  0 
 11  8  1  0  0  0  0 
 12 10  2  0  0  0  0 
 14  1  1  0  0  0  0 
 15  1  1  0  0  0  0 
 19  5  1  0  0  0  0 
 22  6  1  0  0  0  0 
 23  7  1  0  0  0  0 
 24  8  1  0  0  0  0 
 25  9  1  0  0  0  0 
 26  9  1  0  0  0  0 
M  END 
>  <HBA> 
1 
 
>  <HBD> 
0 
 
>  <TPSA> 
17.07 
 
>  <cid> 
16701 
 
>  <dipole> 
2.48 
 
>  <excitation_energy_1> 
4.402 
 
>  <excitation_energy_2> 
5.269 
 
>  <excitation_energy_3> 
5.423 
 
>  <excitation_energy_4> 
5.686 
 
>  <homo_energy> 
-6.471 
 
>  <homo_lumo_gap> 
6.15 
 
>  <logP> 
2.598 
 
>  <lumo_energy> 
-0.321 
 
>  <melting_point> 
25.88 
 
>  <molecular_refractivity> 
50.84 
 
>  <oscillator_strength_1> 
0.0 
 
>  <oscillator_strength_2> 
0.0014 
 
>  <oscillator_strength_3> 
0.0006 
 
>  <oscillator_strength_4> 
0.0002 
 
>  <open_babel_can_smiles> 
CC(=O)CCCc1ccccc1 
 
>  <mulliken_charges> 
26 
1   -0.529094 
2   -0.13292 
3   -0.126495 
4   -0.12728 
5   -0.248243 
6   -0.36091 
7   -0.19711 
8   -0.182824 
9   -0.358351 
10   0.457099 
11   0.174255 
12   -0.441365 
13   0.173096 
14   0.164354 
15   0.178507 
16   0.127217 
17   0.127381 
18   0.127612 
19   0.15422 
20   0.13252 
21   0.16758 
22   0.159163 
23   0.126904 
24   0.122784 
25   0.167758 
26   0.144142 
 
>  <lowdin_charges> 
26 
1   -0.474185 
2   -0.160659 
3   -0.157059 
4   -0.155922 
5   -0.268767 
6   -0.316274 
7   -0.174863 
8   -0.168132 
9   -0.279049 
10   0.16556 
11   -0.001434 
12   -0.24039 
13   0.171253 
14   0.166447 
15   0.172679 
16   0.155207 
17   0.156336 
18   0.156881 
19   0.15519 
20   0.143704 
21   0.164857 
22   0.165577 
23   0.155468 
24   0.153587 
25   0.160235 
26   0.153753 
 
$$$$ 
 
