PCCDB-ID:  61124 
public computational chemistry database (PCCDB) project, http://pccdb.org 
 
 30 30  0  0  0  0  0  0  0  0999 V2000 
    1.0542   -0.0157    0.0372 C   0  0  0  0  0  0  0  0  0  0  0  0 
    5.4581   -1.4885   -1.2639 C   0  0  0  0  0  0  0  0  0  0  0  0 
    5.4101   -2.0866    1.1743 C   0  0  0  0  0  0  0  0  0  0  0  0 
    4.6371    1.4333   -0.2296 C   0  0  0  0  0  0  0  0  0  0  0  0 
    3.1492    1.3782    0.1165 C   0  0  0  0  0  0  0  0  0  0  0  0 
    2.7132   -2.5273   -0.0307 C   0  0  0  0  0  0  0  0  0  0  0  0 
    5.3722    0.3163    0.5082 C   0  0  0  0  0  0  0  0  0  0  0  0 
    2.3242   -3.0827    1.3310 C   0  0  0  0  0  0  0  0  0  0  0  0 
    2.5667   -0.0223    0.0687 C   0  0  0  0  0  0  0  0  0  0  0  0 
    3.3329   -1.1339    0.0529 C   0  0  0  0  0  0  0  0  0  0  0  0 
    4.8730   -1.0953    0.1157 C   0  0  0  0  0  0  0  0  0  0  0  0 
    2.6938   -4.1471    1.7743 O   0  0  0  0  0  0  0  0  0  0  0  0 
    0.6899    0.4641   -0.8824 H   0  0  0  0  0  0  0  0  0  0  0  0 
    0.6618    0.5832    0.8706 H   0  0  0  0  0  0  0  0  0  0  0  0 
    0.5935   -1.0029    0.1043 H   0  0  0  0  0  0  0  0  0  0  0  0 
    6.5541   -1.5080   -1.2191 H   0  0  0  0  0  0  0  0  0  0  0  0 
    5.1614   -0.7822   -2.0462 H   0  0  0  0  0  0  0  0  0  0  0  0 
    5.1269   -2.4848   -1.5767 H   0  0  0  0  0  0  0  0  0  0  0  0 
    6.5026   -2.0069    1.2309 H   0  0  0  0  0  0  0  0  0  0  0  0 
    5.1674   -3.1286    0.9458 H   0  0  0  0  0  0  0  0  0  0  0  0 
    5.0083   -1.8611    2.1691 H   0  0  0  0  0  0  0  0  0  0  0  0 
    5.0545    2.4122    0.0359 H   0  0  0  0  0  0  0  0  0  0  0  0 
    4.7683    1.3213   -1.3135 H   0  0  0  0  0  0  0  0  0  0  0  0 
    2.5743    2.0261   -0.5608 H   0  0  0  0  0  0  0  0  0  0  0  0 
    2.9839    1.7944    1.1238 H   0  0  0  0  0  0  0  0  0  0  0  0 
    1.7998   -2.5041   -0.6387 H   0  0  0  0  0  0  0  0  0  0  0  0 
    3.3871   -3.2483   -0.4997 H   0  0  0  0  0  0  0  0  0  0  0  0 
    5.2256    0.4554    1.5890 H   0  0  0  0  0  0  0  0  0  0  0  0 
    6.4541    0.3748    0.3316 H   0  0  0  0  0  0  0  0  0  0  0  0 
    1.6511   -2.4233    1.9245 H   0  0  0  0  0  0  0  0  0  0  0  0 
  1  9  1  0  0  0  0 
  1 15  1  0  0  0  0 
  1 14  1  0  0  0  0 
  2 16  1  0  0  0  0 
  2 11  1  0  0  0  0 
  3 19  1  0  0  0  0 
  3 21  1  0  0  0  0 
  4 22  1  0  0  0  0 
  4  5  1  0  0  0  0 
  4  7  1  0  0  0  0 
  5 25  1  0  0  0  0 
  6 10  1  0  0  0  0 
  6  8  1  0  0  0  0 
  7 28  1  0  0  0  0 
  8 12  2  0  0  0  0 
  8 30  1  0  0  0  0 
  9  5  1  0  0  0  0 
 10  9  2  0  0  0  0 
 10 11  1  0  0  0  0 
 11  7  1  0  0  0  0 
 11  3  1  0  0  0  0 
 13  1  1  0  0  0  0 
 17  2  1  0  0  0  0 
 18  2  1  0  0  0  0 
 20  3  1  0  0  0  0 
 23  4  1  0  0  0  0 
 24  5  1  0  0  0  0 
 26  6  1  0  0  0  0 
 27  6  1  0  0  0  0 
 29  7  1  0  0  0  0 
M  END 
>  <HBA> 
1 
 
>  <HBD> 
0 
 
>  <TPSA> 
17.07 
 
>  <cid> 
61124 
 
>  <dipole> 
2.98 
 
>  <excitation_energy_1> 
4.076 
 
>  <excitation_energy_2> 
4.888 
 
>  <excitation_energy_3> 
5.634 
 
>  <excitation_energy_4> 
5.951 
 
>  <homo_energy> 
-6.172 
 
>  <homo_lumo_gap> 
5.548 
 
>  <logP> 
3.102 
 
>  <lumo_energy> 
-0.623 
 
>  <melting_point> 
59.74 
 
>  <molecular_refractivity> 
52.34 
 
>  <oscillator_strength_1> 
0.0092 
 
>  <oscillator_strength_2> 
0.0188 
 
>  <oscillator_strength_3> 
0.0103 
 
>  <oscillator_strength_4> 
0.0291 
 
>  <open_babel_can_smiles> 
O=CCC1=C(C)CCCC1(C)C 
 
>  <mulliken_charges> 
30 
1   -0.515427 
2   -0.450486 
3   -0.465771 
4   -0.271897 
5   -0.318239 
6   -0.433821 
7   -0.268195 
8   0.270129 
9   0.097648 
10   0.100131 
11   0.045366 
12   -0.387915 
13   0.156611 
14   0.157937 
15   0.146082 
16   0.141304 
17   0.146185 
18   0.1438 
19   0.140582 
20   0.160941 
21   0.144963 
22   0.132084 
23   0.138624 
24   0.138444 
25   0.144298 
26   0.172115 
27   0.169663 
28   0.130665 
29   0.127982 
30   0.106196 
 
>  <lowdin_charges> 
30 
1   -0.448032 
2   -0.44214 
3   -0.442086 
4   -0.274839 
5   -0.276207 
6   -0.314345 
7   -0.269324 
8   0.055578 
9   -0.026802 
10   -0.039205 
11   0.013143 
12   -0.219096 
13   0.157426 
14   0.159608 
15   0.151487 
16   0.146049 
17   0.149778 
18   0.14815 
19   0.147795 
20   0.155672 
21   0.149329 
22   0.145224 
23   0.14018 
24   0.149229 
25   0.147339 
26   0.171472 
27   0.165877 
28   0.139493 
29   0.141121 
30   0.118127 
 
$$$$ 
 
