PCCDB-ID:  56019 
public computational chemistry database (PCCDB) project, http://pccdb.org 
 
 20 19  0  0  1  0  0  0  0  0999 V2000 
    3.3644    0.1700   -1.3801 C   0  0  0  0  0  0  0  0  0  0  0  0 
    2.2508   -1.0654    2.1874 C   0  0  0  0  0  0  0  0  0  0  0  0 
    2.6720    0.1372   -0.0160 C   0  0  0  0  0  0  0  0  0  0  0  0 
    2.0557   -3.3112   -0.4699 C   0  0  0  0  0  0  0  0  0  0  0  0 
    2.4890   -2.3344    0.1005 C   0  0  0  0  0  0  0  0  0  0  0  0 
    1.5275   -4.4728   -1.1630 C   0  0  0  0  0  0  0  0  0  0  0  0 
    2.9578   -1.1385    0.8185 C   0  0  2  0  0  0  0  0  0  0  0  0 
    0.3864   -4.5814   -1.5384 O   0  0  0  0  0  0  0  0  0  0  0  0 
    2.4348   -5.4633   -1.3665 O   0  0  0  0  0  0  0  0  0  0  0  0 
    4.3713   -1.3163    1.0058 O   0  0  0  0  0  0  0  0  0  0  0  0 
    3.1759    1.1255   -1.8804 H   0  0  0  0  0  0  0  0  0  0  0  0 
    2.9945   -0.6298   -2.0302 H   0  0  0  0  0  0  0  0  0  0  0  0 
    4.4457    0.0434   -1.2716 H   0  0  0  0  0  0  0  0  0  0  0  0 
    1.1649   -0.9950    2.0725 H   0  0  0  0  0  0  0  0  0  0  0  0 
    2.5966   -0.1769    2.7305 H   0  0  0  0  0  0  0  0  0  0  0  0 
    2.4882   -1.9528    2.7801 H   0  0  0  0  0  0  0  0  0  0  0  0 
    1.5866    0.2389   -0.1351 H   0  0  0  0  0  0  0  0  0  0  0  0 
    2.9997    0.9929    0.5927 H   0  0  0  0  0  0  0  0  0  0  0  0 
    3.2945   -5.1944   -0.9985 H   0  0  0  0  0  0  0  0  0  0  0  0 
    4.6852   -0.5414    1.5011 H   0  0  0  0  0  0  0  0  0  0  0  0 
  1 13  1  0  0  0  0 
  1  3  1  0  0  0  0 
  2 15  1  0  0  0  0 
  2 16  1  0  0  0  0 
  3 18  1  0  0  0  0 
  3  7  1  0  0  0  0 
  4  5  3  0  0  0  0 
  6  4  1  0  0  0  0 
  7  5  1  6  0  0  0 
  7 10  1  0  0  0  0 
  7  2  1  0  0  0  0 
  8  6  2  0  0  0  0 
  9  6  1  0  0  0  0 
  9 19  1  0  0  0  0 
 10 20  1  0  0  0  0 
 11  1  1  0  0  0  0 
 12  1  1  0  0  0  0 
 14  2  1  0  0  0  0 
 17  3  1  0  0  0  0 
M  END 
>  <HBA> 
3 
 
>  <HBD> 
2 
 
>  <TPSA> 
57.53 
 
>  <cid> 
56019 
 
>  <dipole> 
5.57 
 
>  <excitation_energy_1> 
4.807 
 
>  <excitation_energy_2> 
5.633 
 
>  <excitation_energy_3> 
5.684 
 
>  <excitation_energy_4> 
6.117 
 
>  <homo_energy> 
-7.532 
 
>  <homo_lumo_gap> 
6.406 
 
>  <logP> 
0.235 
 
>  <lumo_energy> 
-1.127 
 
>  <melting_point> 
96.92 
 
>  <molecular_refractivity> 
36.9 
 
>  <oscillator_strength_1> 
0.0001 
 
>  <oscillator_strength_2> 
0.0759 
 
>  <oscillator_strength_3> 
0.0263 
 
>  <oscillator_strength_4> 
0.0037 
 
>  <open_babel_can_smiles> 
C[C@@](C#CC(=O)O)(CC)O 
 
>  <mulliken_charges> 
20 
1   -0.449324 
2   -0.455782 
3   -0.267096 
4   -0.05191 
5   0.121406 
6   0.503754 
7   0.159649 
8   -0.419031 
9   -0.561913 
10   -0.629638 
11   0.14882 
12   0.161893 
13   0.158504 
14   0.166484 
15   0.142874 
16   0.172622 
17   0.153718 
18   0.130442 
19   0.419414 
20   0.395112 
 
>  <lowdin_charges> 
20 
1   -0.447613 
2   -0.444212 
3   -0.277258 
4   -0.122279 
5   -9e-05 
6   0.204243 
7   0.130971 
8   -0.212859 
9   -0.342233 
10   -0.450288 
11   0.154925 
12   0.159538 
13   0.154522 
14   0.163942 
15   0.151553 
16   0.16747 
17   0.154789 
18   0.142597 
19   0.366593 
20   0.345688 
 
$$$$ 
 
