PCCDB-ID:  25591 
public computational chemistry database (PCCDB) project, http://pccdb.org 
 
 21 20  0  0  0  0  0  0  0  0999 V2000 
    1.0334    2.1294    0.2900 C   0  0  0  0  0  0  0  0  0  0  0  0 
    2.5578    1.9919    0.2378 C   0  0  0  0  0  0  0  0  0  0  0  0 
    3.0380    0.7937    1.0664 C   0  0  0  0  0  0  0  0  0  0  0  0 
    5.1394   -0.1676    0.0773 C   0  0  0  0  0  0  0  0  0  0  0  0 
    4.4421   -0.6993   -0.8362 N   0  0  0  0  0  0  0  0  0  0  0  0 
    6.5236   -0.2744    0.3372 N   0  0  0  0  0  0  0  0  0  0  0  0 
    5.2995    1.3120    1.9199 N   0  0  0  0  0  0  0  0  0  0  0  0 
    4.5009    0.6433    1.0513 N   0  0  0  0  0  0  0  0  0  0  0  0 
    7.4638   -0.7177   -0.5821 N   0  0  0  0  0  0  0  0  0  0  0  0 
    4.7193    2.0334    2.7120 O   0  0  0  0  0  0  0  0  0  0  0  0 
    7.0759   -1.3552   -1.5562 O   0  0  0  0  0  0  0  0  0  0  0  0 
    8.6213   -0.4456   -0.2949 O   0  0  0  0  0  0  0  0  0  0  0  0 
    0.7009    2.9883   -0.3021 H   0  0  0  0  0  0  0  0  0  0  0  0 
    0.6804    2.2769    1.3177 H   0  0  0  0  0  0  0  0  0  0  0  0 
    0.5391    1.2365   -0.1108 H   0  0  0  0  0  0  0  0  0  0  0  0 
    3.0312    2.9032    0.6209 H   0  0  0  0  0  0  0  0  0  0  0  0 
    2.8898    1.8574   -0.7977 H   0  0  0  0  0  0  0  0  0  0  0  0 
    2.6264   -0.1384    0.6786 H   0  0  0  0  0  0  0  0  0  0  0  0 
    2.7607    0.9121    2.1169 H   0  0  0  0  0  0  0  0  0  0  0  0 
    5.0199   -1.2676   -1.4536 H   0  0  0  0  0  0  0  0  0  0  0  0 
    6.9365    0.3354    1.0369 H   0  0  0  0  0  0  0  0  0  0  0  0 
  1 14  1  0  0  0  0 
  2  1  1  0  0  0  0 
  2 16  1  0  0  0  0 
  2  3  1  0  0  0  0 
  3 19  1  0  0  0  0 
  4  6  1  0  0  0  0 
  4  8  1  0  0  0  0 
  5  4  2  0  0  0  0 
  6 21  1  0  0  0  0 
  7 10  2  0  0  0  0 
  8  3  1  0  0  0  0 
  8  7  1  0  0  0  0 
  9 12  2  0  0  0  0 
  9  6  1  0  0  0  0 
 11  9  2  0  0  0  0 
 13  1  1  0  0  0  0 
 15  1  1  0  0  0  0 
 17  2  1  0  0  0  0 
 18  3  1  0  0  0  0 
 20  5  1  0  0  0  0 
M  END 
>  <HBA> 
5 
 
>  <HBD> 
1 
 
>  <TPSA> 
116.87 
 
>  <cid> 
25591 
 
>  <dipole> 
2.37 
 
>  <excitation_energy_1> 
3.098 
 
>  <excitation_energy_2> 
4.109 
 
>  <excitation_energy_3> 
4.537 
 
>  <excitation_energy_4> 
4.684 
 
>  <homo_energy> 
-7.2 
 
>  <homo_lumo_gap> 
4.789 
 
>  <logP> 
1.11 
 
>  <lumo_energy> 
-2.411 
 
>  <melting_point> 
99.32 
 
>  <molecular_refractivity> 
43.47 
 
>  <oscillator_strength_1> 
0.0009 
 
>  <oscillator_strength_2> 
0.0015 
 
>  <oscillator_strength_3> 
0.0015 
 
>  <oscillator_strength_4> 
0.0091 
 
>  <open_babel_can_smiles> 
CCCN(C(=N)NN(=O)=O)N=O 
 
>  <mulliken_charges> 
21 
1   -0.450592 
2   -0.263699 
3   -0.140231 
4   0.736069 
5   -0.623484 
6   -0.516235 
7   0.16863 
8   -0.325596 
9   0.656273 
10   -0.349653 
11   -0.403991 
12   -0.384396 
13   0.156412 
14   0.151399 
15   0.153047 
16   0.157904 
17   0.163955 
18   0.196829 
19   0.181976 
20   0.34561 
21   0.389771 
 
>  <lowdin_charges> 
21 
1   -0.443289 
2   -0.276868 
3   -0.206937 
4   0.136198 
5   -0.391089 
6   -0.22555 
7   0.053893 
8   -0.020301 
9   0.347562 
10   -0.215964 
11   -0.246844 
12   -0.234363 
13   0.159224 
14   0.150705 
15   0.152966 
16   0.153441 
17   0.155459 
18   0.18059 
19   0.168613 
20   0.286714 
21   0.315837 
 
$$$$ 
 
