PCCDB-ID:  16800 
public computational chemistry database (PCCDB) project, http://pccdb.org 
 
 26 26  0  0  0  0  0  0  0  0999 V2000 
    3.2598    1.9270   -0.3657 C   0  0  0  0  0  0  0  0  0  0  0  0 
    2.6171    0.5531   -0.5916 C   0  0  0  0  0  0  0  0  0  0  0  0 
    3.2144   -0.2434   -1.7640 C   0  0  0  0  0  0  0  0  0  0  0  0 
    4.6700   -0.6821   -1.5535 C   0  0  0  0  0  0  0  0  0  0  0  0 
    4.9247   -0.2545   -6.3074 C   0  0  0  0  0  0  0  0  0  0  0  0 
    5.8407    0.7939   -6.2512 C   0  0  0  0  0  0  0  0  0  0  0  0 
    5.2418   -1.5169   -2.7174 C   0  0  0  0  0  0  0  0  0  0  0  0 
    4.7116   -1.0220   -5.1633 C   0  0  0  0  0  0  0  0  0  0  0  0 
    6.4998    1.0210   -5.0418 C   0  0  0  0  0  0  0  0  0  0  0  0 
    5.4224   -0.7223   -3.9937 C   0  0  0  0  0  0  0  0  0  0  0  0 
    6.3054    0.2916   -3.9391 N   0  0  0  0  0  0  0  0  0  0  0  0 
    2.7596    2.4656    0.4475 H   0  0  0  0  0  0  0  0  0  0  0  0 
    3.1896    2.5472   -1.2681 H   0  0  0  0  0  0  0  0  0  0  0  0 
    4.3200    1.8453   -0.1024 H   0  0  0  0  0  0  0  0  0  0  0  0 
    1.5422    0.6894   -0.7727 H   0  0  0  0  0  0  0  0  0  0  0  0 
    2.6956   -0.0437    0.3287 H   0  0  0  0  0  0  0  0  0  0  0  0 
    3.1403    0.3574   -2.6817 H   0  0  0  0  0  0  0  0  0  0  0  0 
    2.5972   -1.1379   -1.9346 H   0  0  0  0  0  0  0  0  0  0  0  0 
    4.7361   -1.2766   -0.6314 H   0  0  0  0  0  0  0  0  0  0  0  0 
    5.3188    0.1903   -1.4168 H   0  0  0  0  0  0  0  0  0  0  0  0 
    4.3851   -0.4732   -7.2254 H   0  0  0  0  0  0  0  0  0  0  0  0 
    6.0428    1.4192   -7.1157 H   0  0  0  0  0  0  0  0  0  0  0  0 
    4.5975   -2.3847   -2.9090 H   0  0  0  0  0  0  0  0  0  0  0  0 
    6.2239   -1.9054   -2.4188 H   0  0  0  0  0  0  0  0  0  0  0  0 
    4.0048   -1.8469   -5.1724 H   0  0  0  0  0  0  0  0  0  0  0  0 
    7.2234    1.8309   -4.9547 H   0  0  0  0  0  0  0  0  0  0  0  0 
  1 14  1  0  0  0  0 
  1 12  1  0  0  0  0 
  2  1  1  0  0  0  0 
  2 16  1  0  0  0  0 
  3  4  1  0  0  0  0 
  3  2  1  0  0  0  0 
  4 20  1  0  0  0  0 
  4 19  1  0  0  0  0 
  5  6  2  0  0  0  0 
  5  8  1  0  0  0  0 
  6  9  1  0  0  0  0 
  7 24  1  0  0  0  0 
  7  4  1  0  0  0  0 
  8 10  2  0  0  0  0 
  9 26  1  0  0  0  0 
  9 11  2  0  0  0  0 
 10 11  1  0  0  0  0 
 10  7  1  0  0  0  0 
 13  1  1  0  0  0  0 
 15  2  1  0  0  0  0 
 17  3  1  0  0  0  0 
 18  3  1  0  0  0  0 
 21  5  1  0  0  0  0 
 22  6  1  0  0  0  0 
 23  7  1  0  0  0  0 
 25  8  1  0  0  0  0 
M  END 
>  <HBA> 
1 
 
>  <HBD> 
0 
 
>  <TPSA> 
12.89 
 
>  <cid> 
16800 
 
>  <dipole> 
1.73 
 
>  <excitation_energy_1> 
4.812 
 
>  <excitation_energy_2> 
5.17 
 
>  <excitation_energy_3> 
5.332 
 
>  <excitation_energy_4> 
6.076 
 
>  <homo_energy> 
-6.746 
 
>  <homo_lumo_gap> 
6.191 
 
>  <logP> 
2.814 
 
>  <lumo_energy> 
-0.555 
 
>  <melting_point> 
20.0 
 
>  <molecular_refractivity> 
48.43 
 
>  <oscillator_strength_1> 
0.0048 
 
>  <oscillator_strength_2> 
0.0002 
 
>  <oscillator_strength_3> 
0.0618 
 
>  <oscillator_strength_4> 
0.0728 
 
>  <open_babel_can_smiles> 
CCCCCc1ccccn1 
 
>  <mulliken_charges> 
26 
1   -0.442484 
2   -0.24861 
3   -0.25227 
4   -0.25769 
5   -0.100699 
6   -0.143921 
7   -0.320855 
8   -0.174575 
9   0.036956 
10   0.305526 
11   -0.464227 
12   0.139341 
13   0.142261 
14   0.149067 
15   0.128616 
16   0.127983 
17   0.135094 
18   0.120431 
19   0.126044 
20   0.162451 
21   0.140559 
22   0.135264 
23   0.130724 
24   0.154612 
25   0.132164 
26   0.138238 
 
>  <lowdin_charges> 
26 
1   -0.446861 
2   -0.270553 
3   -0.279401 
4   -0.274988 
5   -0.127927 
6   -0.184252 
7   -0.277167 
8   -0.185385 
9   -0.086462 
10   0.054189 
11   -0.159721 
12   0.149363 
13   0.147075 
14   0.147432 
15   0.138774 
16   0.137587 
17   0.141441 
18   0.136783 
19   0.139797 
20   0.154756 
21   0.162252 
22   0.163626 
23   0.142972 
24   0.160605 
25   0.161144 
26   0.154922 
 
$$$$ 
 
