PCCDB-ID:  6559 
public computational chemistry database (PCCDB) project, http://pccdb.org 
 
 12 11  0  0  0  0  0  0  0  0999 V2000 
    1.0542   -0.0111    0.0120 C   0  0  0  0  0  0  0  0  0  0  0  0 
    3.1439    1.2283   -0.7932 C   0  0  0  0  0  0  0  0  0  0  0  0 
    3.0987    0.0900    1.4051 C   0  0  0  0  0  0  0  0  0  0  0  0 
    2.5950    0.0407    0.0222 C   0  0  0  0  0  0  0  0  0  0  0  0 
    3.4896    0.1408    2.4972 N   0  0  0  0  0  0  0  0  0  0  0  0 
    0.6964   -0.0908   -1.0199 H   0  0  0  0  0  0  0  0  0  0  0  0 
    0.6323    0.8975    0.4538 H   0  0  0  0  0  0  0  0  0  0  0  0 
    0.6812   -0.8714    0.5755 H   0  0  0  0  0  0  0  0  0  0  0  0 
    2.7959    1.1551   -1.8290 H   0  0  0  0  0  0  0  0  0  0  0  0 
    4.2378    1.2380   -0.7951 H   0  0  0  0  0  0  0  0  0  0  0  0 
    2.7932    2.1790   -0.3784 H   0  0  0  0  0  0  0  0  0  0  0  0 
    2.9774   -0.8903   -0.4182 H   0  0  0  0  0  0  0  0  0  0  0  0 
  1  4  1  0  0  0  0 
  1  7  1  0  0  0  0 
  1  8  1  0  0  0  0 
  2 11  1  0  0  0  0 
  2  4  1  0  0  0  0 
  3  5  3  0  0  0  0 
  4  3  1  0  0  0  0 
  6  1  1  0  0  0  0 
  9  2  1  0  0  0  0 
 10  2  1  0  0  0  0 
 12  4  1  0  0  0  0 
M  END 
>  <HBA> 
1 
 
>  <HBD> 
0 
 
>  <TPSA> 
23.79 
 
>  <cid> 
6559 
 
>  <dipole> 
3.94 
 
>  <excitation_energy_1> 
7.535 
 
>  <excitation_energy_2> 
7.731 
 
>  <excitation_energy_3> 
7.779 
 
>  <excitation_energy_4> 
8.098 
 
>  <homo_energy> 
-8.656 
 
>  <homo_lumo_gap> 
9.633 
 
>  <logP> 
1.166 
 
>  <lumo_energy> 
0.977 
 
>  <melting_point> 
8.67 
 
>  <molecular_refractivity> 
21.09 
 
>  <oscillator_strength_1> 
0.0048 
 
>  <oscillator_strength_2> 
0.0051 
 
>  <oscillator_strength_3> 
0.0201 
 
>  <oscillator_strength_4> 
0.0333 
 
>  <open_babel_can_smiles> 
CC(C#N)C 
 
>  <mulliken_charges> 
12 
1   -0.440506 
2   -0.440522 
3   0.347301 
4   -0.163643 
5   -0.472231 
6   0.157261 
7   0.166718 
8   0.169162 
9   0.157248 
10   0.169188 
11   0.166705 
12   0.183318 
 
>  <lowdin_charges> 
12 
1   -0.433393 
2   -0.430297 
3   -0.019121 
4   -0.120216 
5   -0.132809 
6   0.156662 
7   0.16173 
8   0.164676 
9   0.156511 
10   0.161955 
11   0.161286 
12   0.173017 
 
$$$$ 
 
