PCCDB-ID:  19699 
public computational chemistry database (PCCDB) project, http://pccdb.org 
 
 25 25  0  0  0  0  0  0  0  0999 V2000 
    1.9570    0.1138    1.3799 C   0  0  0  0  0  0  0  0  0  0  0  0 
    4.8623   -1.7696   -0.2324 C   0  0  0  0  0  0  0  0  0  0  0  0 
    5.2880   -0.8734   -1.2192 C   0  0  0  0  0  0  0  0  0  0  0  0 
    3.7889   -1.4449    0.5960 C   0  0  0  0  0  0  0  0  0  0  0  0 
    4.6355    0.3429   -1.3666 C   0  0  0  0  0  0  0  0  0  0  0  0 
    2.6923    6.4439   -1.3851 C   0  0  0  0  0  0  0  0  0  0  0  0 
    3.7997    5.1360    0.3299 C   0  0  0  0  0  0  0  0  0  0  0  0 
    2.4923    3.9567   -1.4522 C   0  0  0  0  0  0  0  0  0  0  0  0 
    3.1109   -0.2267    0.4677 C   0  0  0  0  0  0  0  0  0  0  0  0 
    3.3829    5.1794   -1.0829 C   0  0  0  0  0  0  0  0  0  0  0  0 
    3.5568    0.6689   -0.5282 C   0  0  0  0  0  0  0  0  0  0  0  0 
    2.1316    7.4233   -1.6519 N   0  0  0  0  0  0  0  0  0  0  0  0 
    4.1266    5.0795    1.4409 N   0  0  0  0  0  0  0  0  0  0  0  0 
    3.3221    2.7522   -1.3905 N   0  0  0  0  0  0  0  0  0  0  0  0 
    2.8310    1.8863   -0.6303 N   0  0  0  0  0  0  0  0  0  0  0  0 
    1.6915   -0.7471    2.0006 H   0  0  0  0  0  0  0  0  0  0  0  0 
    1.0737    0.4216    0.8126 H   0  0  0  0  0  0  0  0  0  0  0  0 
    2.2082    0.9472    2.0458 H   0  0  0  0  0  0  0  0  0  0  0  0 
    5.3663   -2.7247   -0.1118 H   0  0  0  0  0  0  0  0  0  0  0  0 
    6.1204   -1.1286   -1.8688 H   0  0  0  0  0  0  0  0  0  0  0  0 
    3.4661   -2.1487    1.3587 H   0  0  0  0  0  0  0  0  0  0  0  0 
    4.9375    1.0568   -2.1250 H   0  0  0  0  0  0  0  0  0  0  0  0 
    2.1650    4.0909   -2.4898 H   0  0  0  0  0  0  0  0  0  0  0  0 
    1.6199    3.8916   -0.7933 H   0  0  0  0  0  0  0  0  0  0  0  0 
    4.2895    5.1251   -1.7012 H   0  0  0  0  0  0  0  0  0  0  0  0 
  1 16  1  0  0  0  0 
  1 18  1  0  0  0  0 
  2 19  1  0  0  0  0 
  2  4  2  0  0  0  0 
  3  2  1  0  0  0  0 
  4 21  1  0  0  0  0 
  5  3  2  0  0  0  0 
  5 11  1  0  0  0  0 
  6 10  1  0  0  0  0 
  7 13  3  0  0  0  0 
  8 14  1  0  0  0  0 
  8 10  1  0  0  0  0 
  8 24  1  0  0  0  0 
  9  4  1  0  0  0  0 
  9  1  1  0  0  0  0 
 10  7  1  0  0  0  0 
 11  9  2  0  0  0  0 
 12  6  3  0  0  0  0 
 14 15  1  0  0  0  0 
 15 11  1  0  0  0  0 
 17  1  1  0  0  0  0 
 20  3  1  0  0  0  0 
 22  5  1  0  0  0  0 
 23  8  1  0  0  0  0 
 25 10  1  0  0  0  0 
M  RAD  2  14   2  15   2 
M  END 
>  <HBA> 
4 
 
>  <HBD> 
0 
 
>  <TPSA> 
72.3 
 
>  <cid> 
19699 
 
>  <dipole> 
5.11 
 
>  <excitation_energy_1> 
2.908 
 
>  <excitation_energy_2> 
3.885 
 
>  <excitation_energy_3> 
4.25 
 
>  <excitation_energy_4> 
5.489 
 
>  <homo_energy> 
-6.748 
 
>  <homo_lumo_gap> 
4.357 
 
>  <logP> 
2.742 
 
>  <lumo_energy> 
-2.392 
 
>  <melting_point> 
96.86 
 
>  <molecular_refractivity> 
55.71 
 
>  <oscillator_strength_1> 
0.0017 
 
>  <oscillator_strength_2> 
0.048 
 
>  <oscillator_strength_3> 
0.3797 
 
>  <oscillator_strength_4> 
0.0051 
 
>  <open_babel_can_smiles> 
N#CC(C[N][N]c1ccccc1C)C#N 
 
>  <mulliken_charges> 
25 
1   -0.51814 
2   -0.10718 
3   -0.147981 
4   -0.195059 
5   -0.121114 
6   0.372641 
7   0.379866 
8   -0.122308 
9   0.163906 
10   -0.239529 
11   0.202182 
12   -0.445219 
13   -0.439471 
14   -0.201293 
15   -0.281864 
16   0.151992 
17   0.175034 
18   0.180282 
19   0.14065 
20   0.140577 
21   0.134619 
22   0.156243 
23   0.190151 
24   0.182693 
25   0.248321 
 
>  <lowdin_charges> 
25 
1   -0.443312 
2   -0.133996 
3   -0.157368 
4   -0.167375 
5   -0.143657 
6   -0.010177 
7   -0.009385 
8   -0.200704 
9   0.020859 
10   -0.118238 
11   -0.008495 
12   -0.088447 
13   -0.087406 
14   -0.10706 
15   -0.058032 
16   0.156861 
17   0.170463 
18   0.172902 
19   0.163217 
20   0.163275 
21   0.161662 
22   0.174043 
23   0.172846 
24   0.164605 
25   0.212918 
 
$$$$ 
 
