PCCDB-ID:  56268 
public computational chemistry database (PCCDB) project, http://pccdb.org 
 
 32 33  0  0  0  0  0  0  0  0999 V2000 
    2.8569   -0.7043    3.2274 C   0  0  0  0  0  0  0  0  0  0  0  0 
    3.1067   -0.5900    1.9239 C   0  0  0  0  0  0  0  0  0  0  0  0 
    9.8178    2.3076    0.2496 C   0  0  0  0  0  0  0  0  0  0  0  0 
    8.7387    3.0073   -0.5887 C   0  0  0  0  0  0  0  0  0  0  0  0 
    9.4069    0.8674    0.5869 C   0  0  0  0  0  0  0  0  0  0  0  0 
    7.3690    2.9600    0.1039 C   0  0  0  0  0  0  0  0  0  0  0  0 
    8.0380    0.8193    1.2810 C   0  0  0  0  0  0  0  0  0  0  0  0 
    3.2879    0.7294    1.2179 C   0  0  0  0  0  0  0  0  0  0  0  0 
    6.4877    0.6962   -0.7848 C   0  0  0  0  0  0  0  0  0  0  0  0 
    5.0287    0.3253   -0.5492 C   0  0  0  0  0  0  0  0  0  0  0  0 
    5.6536    1.5857    1.3085 C   0  0  0  0  0  0  0  0  0  0  0  0 
    6.9279    1.5160    0.4527 C   0  0  0  0  0  0  0  0  0  0  0  0 
    4.6365    0.8854    0.6635 N   0  0  0  0  0  0  0  0  0  0  0  0 
    4.3021   -0.3327   -1.2663 O   0  0  0  0  0  0  0  0  0  0  0  0 
    5.5256    2.1594    2.3721 O   0  0  0  0  0  0  0  0  0  0  0  0 
    2.7194   -1.6737    3.6989 H   0  0  0  0  0  0  0  0  0  0  0  0 
    2.7803    0.1679    3.8731 H   0  0  0  0  0  0  0  0  0  0  0  0 
    3.1856   -1.4750    1.2942 H   0  0  0  0  0  0  0  0  0  0  0  0 
    9.9712    2.8685    1.1831 H   0  0  0  0  0  0  0  0  0  0  0  0 
   10.7772    2.3148   -0.2824 H   0  0  0  0  0  0  0  0  0  0  0  0 
    8.6751    2.5253   -1.5754 H   0  0  0  0  0  0  0  0  0  0  0  0 
    9.0156    4.0523   -0.7750 H   0  0  0  0  0  0  0  0  0  0  0  0 
   10.1579    0.3956    1.2325 H   0  0  0  0  0  0  0  0  0  0  0  0 
    9.3778    0.2718   -0.3374 H   0  0  0  0  0  0  0  0  0  0  0  0 
    6.6057    3.4354   -0.5265 H   0  0  0  0  0  0  0  0  0  0  0  0 
    7.4066    3.5338    1.0382 H   0  0  0  0  0  0  0  0  0  0  0  0 
    8.0982    1.3252    2.2528 H   0  0  0  0  0  0  0  0  0  0  0  0 
    7.7480   -0.2201    1.4847 H   0  0  0  0  0  0  0  0  0  0  0  0 
    3.1317    1.5647    1.9040 H   0  0  0  0  0  0  0  0  0  0  0  0 
    2.5910    0.8130    0.3772 H   0  0  0  0  0  0  0  0  0  0  0  0 
    6.5543    1.2588   -1.7225 H   0  0  0  0  0  0  0  0  0  0  0  0 
    7.0648   -0.2232   -0.9286 H   0  0  0  0  0  0  0  0  0  0  0  0 
  1 16  1  0  0  0  0 
  1 17  1  0  0  0  0 
  2  1  2  0  0  0  0 
  3  5  1  0  0  0  0 
  3 19  1  0  0  0  0 
  4  6  1  0  0  0  0 
  4  3  1  0  0  0  0 
  5 23  1  0  0  0  0 
  5  7  1  0  0  0  0 
  6 12  1  0  0  0  0 
  6 26  1  0  0  0  0 
  7 28  1  0  0  0  0 
  7 27  1  0  0  0  0 
  8 29  1  0  0  0  0 
  8  2  1  0  0  0  0 
  9 10  1  0  0  0  0 
  9 12  1  0  0  0  0 
 10 13  1  0  0  0  0 
 11 15  2  0  0  0  0 
 12  7  1  0  0  0  0 
 12 11  1  0  0  0  0 
 13  8  1  0  0  0  0 
 13 11  1  0  0  0  0 
 14 10  2  0  0  0  0 
 18  2  1  0  0  0  0 
 20  3  1  0  0  0  0 
 21  4  1  0  0  0  0 
 22  4  1  0  0  0  0 
 24  5  1  0  0  0  0 
 25  6  1  0  0  0  0 
 30  8  1  0  0  0  0 
 31  9  1  0  0  0  0 
 32  9  1  0  0  0  0 
M  END 
>  <HBA> 
3 
 
>  <HBD> 
0 
 
>  <TPSA> 
37.38 
 
>  <cid> 
56268 
 
>  <dipole> 
1.9 
 
>  <excitation_energy_1> 
4.908 
 
>  <excitation_energy_2> 
5.422 
 
>  <excitation_energy_3> 
5.986 
 
>  <excitation_energy_4> 
6.163 
 
>  <homo_energy> 
-6.882 
 
>  <homo_lumo_gap> 
6.427 
 
>  <logP> 
1.82 
 
>  <lumo_energy> 
-0.454 
 
>  <melting_point> 
58.11 
 
>  <molecular_refractivity> 
62.05 
 
>  <oscillator_strength_1> 
0.0013 
 
>  <oscillator_strength_2> 
0.0001 
 
>  <oscillator_strength_3> 
0.01 
 
>  <oscillator_strength_4> 
0.0067 
 
>  <open_babel_can_smiles> 
C=CCN1C(=O)CC2(C1=O)CCCCC2 
 
>  <mulliken_charges> 
32 
1   -0.326611 
2   -0.053276 
3   -0.257898 
4   -0.267223 
5   -0.267408 
6   -0.278114 
7   -0.278349 
8   -0.203665 
9   -0.411771 
10   0.590569 
11   0.614863 
12   -0.002596 
13   -0.470261 
14   -0.489562 
15   -0.502169 
16   0.146987 
17   0.151849 
18   0.153088 
19   0.136258 
20   0.135814 
21   0.132347 
22   0.140912 
23   0.141149 
24   0.132445 
25   0.134994 
26   0.162377 
27   0.162244 
28   0.1372 
29   0.182333 
30   0.181712 
31   0.185978 
32   0.185785 
 
>  <lowdin_charges> 
32 
1   -0.32079 
2   -0.15749 
3   -0.277607 
4   -0.276758 
5   -0.28012 
6   -0.275115 
7   -0.272156 
8   -0.192063 
9   -0.308976 
10   0.168154 
11   0.165123 
12   -0.021286 
13   -0.073496 
14   -0.268869 
15   -0.265461 
16   0.162467 
17   0.162888 
18   0.163492 
19   0.141913 
20   0.14624 
21   0.13777 
22   0.14842 
23   0.151037 
24   0.138475 
25   0.146316 
26   0.157304 
27   0.15686 
28   0.145046 
29   0.174072 
30   0.172212 
31   0.176339 
32   0.176057 
 
$$$$ 
 
