PCCDB-ID:  7644 
public computational chemistry database (PCCDB) project, http://pccdb.org 
 
 22 22  0  0  0  0  0  0  0  0999 V2000 
    3.7434   -0.7108   -0.8406 C   0  0  0  0  0  0  0  0  0  0  0  0 
    0.7765    0.4418    7.4636 C   0  0  0  0  0  0  0  0  0  0  0  0 
    2.0010   -0.0252    6.9738 C   0  0  0  0  0  0  0  0  0  0  0  0 
   -0.2253    0.8226    6.5702 C   0  0  0  0  0  0  0  0  0  0  0  0 
    2.2222   -0.1111    5.6036 C   0  0  0  0  0  0  0  0  0  0  0  0 
   -0.0029    0.7367    5.1973 C   0  0  0  0  0  0  0  0  0  0  0  0 
    1.3958    0.2005    3.2364 C   0  0  0  0  0  0  0  0  0  0  0  0 
    2.4766   -0.2182    2.5527 C   0  0  0  0  0  0  0  0  0  0  0  0 
    1.2222    0.2694    4.6875 C   0  0  0  0  0  0  0  0  0  0  0  0 
    2.4667   -0.2137    1.0768 C   0  0  0  0  0  0  0  0  0  0  0  0 
    1.5476    0.1470    0.3652 O   0  0  0  0  0  0  0  0  0  0  0  0 
    3.6468   -0.6757    0.5897 O   0  0  0  0  0  0  0  0  0  0  0  0 
    4.7395   -1.0981   -1.0585 H   0  0  0  0  0  0  0  0  0  0  0  0 
    3.6210    0.2915   -1.2607 H   0  0  0  0  0  0  0  0  0  0  0  0 
    2.9761   -1.3653   -1.2635 H   0  0  0  0  0  0  0  0  0  0  0  0 
    0.6074    0.5073    8.5349 H   0  0  0  0  0  0  0  0  0  0  0  0 
    2.7847   -0.3229    7.6651 H   0  0  0  0  0  0  0  0  0  0  0  0 
   -1.1790    1.1875    6.9415 H   0  0  0  0  0  0  0  0  0  0  0  0 
    3.1784   -0.4748    5.2395 H   0  0  0  0  0  0  0  0  0  0  0  0 
   -0.7846    1.0343    4.5025 H   0  0  0  0  0  0  0  0  0  0  0  0 
    0.5458    0.5284    2.6391 H   0  0  0  0  0  0  0  0  0  0  0  0 
    3.3847   -0.5700    3.0316 H   0  0  0  0  0  0  0  0  0  0  0  0 
  1 12  1  0  0  0  0 
  2 16  1  0  0  0  0 
  3  2  1  0  0  0  0 
  3 17  1  0  0  0  0 
  4 18  1  0  0  0  0 
  4  2  2  0  0  0  0 
  5  3  2  0  0  0  0 
  6  4  1  0  0  0  0 
  7  9  1  0  0  0  0 
  8 22  1  0  0  0  0 
  8  7  2  0  0  0  0 
  9  6  2  0  0  0  0 
  9  5  1  0  0  0  0 
 10  8  1  0  0  0  0 
 11 10  2  0  0  0  0 
 12 10  1  0  0  0  0 
 13  1  1  0  0  0  0 
 14  1  1  0  0  0  0 
 15  1  1  0  0  0  0 
 19  5  1  0  0  0  0 
 20  6  1  0  0  0  0 
 21  7  1  0  0  0  0 
M  END 
>  <HBA> 
2 
 
>  <HBD> 
0 
 
>  <TPSA> 
26.3 
 
>  <cid> 
7644 
 
>  <dipole> 
2.03 
 
>  <excitation_energy_1> 
4.373 
 
>  <excitation_energy_2> 
4.452 
 
>  <excitation_energy_3> 
4.523 
 
>  <excitation_energy_4> 
5.537 
 
>  <homo_energy> 
-6.362 
 
>  <homo_lumo_gap> 
4.637 
 
>  <logP> 
1.873 
 
>  <lumo_energy> 
-1.725 
 
>  <melting_point> 
37.95 
 
>  <molecular_refractivity> 
47.43 
 
>  <oscillator_strength_1> 
0.6878 
 
>  <oscillator_strength_2> 
0.0004 
 
>  <oscillator_strength_3> 
0.0112 
 
>  <oscillator_strength_4> 
0.1535 
 
>  <open_babel_can_smiles> 
COC(=O)/C=C/c1ccccc1 
 
>  <mulliken_charges> 
22 
1   -0.21547 
2   -0.123785 
3   -0.131397 
4   -0.131306 
5   -0.170889 
6   -0.187214 
7   -0.148678 
8   -0.207921 
9   0.167136 
10   0.620193 
11   -0.501146 
12   -0.470797 
13   0.161448 
14   0.169121 
15   0.169053 
16   0.136516 
17   0.136467 
18   0.137205 
19   0.135741 
20   0.140354 
21   0.166771 
22   0.148598 
 
>  <lowdin_charges> 
22 
1   -0.277549 
2   -0.144662 
3   -0.153926 
4   -0.153619 
5   -0.146036 
6   -0.150348 
7   -0.10263 
8   -0.20607 
9   -0.007662 
10   0.19434 
11   -0.280668 
12   -0.197607 
13   0.158196 
14   0.158188 
15   0.159859 
16   0.159452 
17   0.162097 
18   0.161453 
19   0.160656 
20   0.163219 
21   0.176095 
22   0.167222 
 
$$$$ 
 
