PCCDB-ID:  26861 
public computational chemistry database (PCCDB) project, http://pccdb.org 
 
 26 27  0  0  0  0  0  0  0  0999 V2000 
    2.9963   -3.2677   -0.6300 C   0  0  0  0  0  0  0  0  0  0  0  0 
    4.2021   -2.9013   -1.4811 C   0  0  0  0  0  0  0  0  0  0  0  0 
    9.3461    2.0065    2.5029 C   0  0  0  0  0  0  0  0  0  0  0  0 
    9.4385    0.6044    2.4605 C   0  0  0  0  0  0  0  0  0  0  0  0 
    8.3200    2.6522    1.8308 C   0  0  0  0  0  0  0  0  0  0  0  0 
    8.5107   -0.1464    1.7514 C   0  0  0  0  0  0  0  0  0  0  0  0 
    5.3702    1.6621   -0.3162 C   0  0  0  0  0  0  0  0  0  0  0  0 
    7.3678    1.9167    1.1055 C   0  0  0  0  0  0  0  0  0  0  0  0 
    6.2643    2.5888    0.3810 C   0  0  0  0  0  0  0  0  0  0  0  0 
    7.4804    0.5191    1.0793 C   0  0  0  0  0  0  0  0  0  0  0  0 
    5.5721    0.3263   -0.2756 C   0  0  0  0  0  0  0  0  0  0  0  0 
    4.6581   -0.6249   -0.9906 C   0  0  0  0  0  0  0  0  0  0  0  0 
    6.1147    3.8083    0.3671 O   0  0  0  0  0  0  0  0  0  0  0  0 
    3.7055   -0.2450   -1.6394 O   0  0  0  0  0  0  0  0  0  0  0  0 
    5.0272   -1.9024   -0.8249 O   0  0  0  0  0  0  0  0  0  0  0  0 
    6.5886   -0.2692    0.3945 O   0  0  0  0  0  0  0  0  0  0  0  0 
    2.4347   -4.0733   -1.1164 H   0  0  0  0  0  0  0  0  0  0  0  0 
    2.3304   -2.4084   -0.5125 H   0  0  0  0  0  0  0  0  0  0  0  0 
    3.3088   -3.6148    0.3600 H   0  0  0  0  0  0  0  0  0  0  0  0 
    3.8996   -2.5167   -2.4580 H   0  0  0  0  0  0  0  0  0  0  0  0 
    4.8752   -3.7507   -1.6158 H   0  0  0  0  0  0  0  0  0  0  0  0 
   10.0786    2.5800    3.0631 H   0  0  0  0  0  0  0  0  0  0  0  0 
   10.2436    0.0984    2.9858 H   0  0  0  0  0  0  0  0  0  0  0  0 
    8.2178    3.7328    1.8398 H   0  0  0  0  0  0  0  0  0  0  0  0 
    8.5617   -1.2291    1.7035 H   0  0  0  0  0  0  0  0  0  0  0  0 
    4.5296    2.0513   -0.8771 H   0  0  0  0  0  0  0  0  0  0  0  0 
  1 18  1  0  0  0  0 
  1 19  1  0  0  0  0 
  2 15  1  0  0  0  0 
  2  1  1  0  0  0  0 
  3 22  1  0  0  0  0 
  4  3  1  0  0  0  0 
  4 23  1  0  0  0  0 
  5 24  1  0  0  0  0 
  5  3  2  0  0  0  0 
  6  4  2  0  0  0  0 
  7 11  2  0  0  0  0 
  7  9  1  0  0  0  0 
  8  5  1  0  0  0  0 
  9  8  1  0  0  0  0 
 10  8  2  0  0  0  0 
 10  6  1  0  0  0  0 
 11 16  1  0  0  0  0 
 12 15  1  0  0  0  0 
 12 11  1  0  0  0  0 
 13  9  2  0  0  0  0 
 14 12  2  0  0  0  0 
 16 10  1  0  0  0  0 
 17  1  1  0  0  0  0 
 20  2  1  0  0  0  0 
 21  2  1  0  0  0  0 
 25  6  1  0  0  0  0 
 26  7  1  0  0  0  0 
M  END 
>  <HBA> 
4 
 
>  <HBD> 
0 
 
>  <TPSA> 
56.51 
 
>  <cid> 
26861 
 
>  <dipole> 
5.07 
 
>  <excitation_energy_1> 
3.355 
 
>  <excitation_energy_2> 
3.997 
 
>  <excitation_energy_3> 
4.459 
 
>  <excitation_energy_4> 
4.572 
 
>  <homo_energy> 
-6.678 
 
>  <homo_lumo_gap> 
4.493 
 
>  <logP> 
1.97 
 
>  <lumo_energy> 
-2.185 
 
>  <melting_point> 
108.61 
 
>  <molecular_refractivity> 
58.57 
 
>  <oscillator_strength_1> 
0.0 
 
>  <oscillator_strength_2> 
0.0726 
 
>  <oscillator_strength_3> 
0.0608 
 
>  <oscillator_strength_4> 
0.0003 
 
>  <open_babel_can_smiles> 
CCOC(=O)c1cc(=O)c2c(o1)cccc2 
 
>  <mulliken_charges> 
26 
1   -0.465148 
2   -0.04828 
3   -0.130276 
4   -0.129218 
5   -0.173552 
6   -0.177699 
7   -0.232927 
8   0.059344 
9   0.422487 
10   0.294829 
11   0.296807 
12   0.605325 
13   -0.506038 
14   -0.477209 
15   -0.45992 
16   -0.523392 
17   0.156382 
18   0.180585 
19   0.162493 
20   0.176406 
21   0.161227 
22   0.143597 
23   0.14574 
24   0.171345 
25   0.156286 
26   0.190807 
 
>  <lowdin_charges> 
26 
1   -0.455441 
2   -0.125189 
3   -0.159149 
4   -0.133494 
5   -0.119933 
6   -0.170441 
7   -0.190139 
8   -0.063314 
9   0.133786 
10   0.105778 
11   0.079177 
12   0.188984 
13   -0.266565 
14   -0.254255 
15   -0.171631 
16   -0.094902 
17   0.163462 
18   0.168103 
19   0.158557 
20   0.161375 
21   0.157871 
22   0.166623 
23   0.167375 
24   0.179558 
25   0.173302 
26   0.200502 
 
$$$$ 
 
