PCCDB-ID:  21532 
public computational chemistry database (PCCDB) project, http://pccdb.org 
 
 38 38  0  0  1  0  0  0  0  0999 V2000 
    2.2874    1.4133   -2.1973 C   0  0  0  0  0  0  0  0  0  0  0  0 
   11.8423    4.7951   -2.2703 C   0  0  0  0  0  0  0  0  0  0  0  0 
   10.9766    2.9047   -5.0054 C   0  0  0  0  0  0  0  0  0  0  0  0 
    7.8770    6.1377   -3.7161 C   0  0  0  0  0  0  0  0  0  0  0  0 
    3.4356    1.8142   -1.2632 C   0  0  0  0  0  0  0  0  0  0  0  0 
    4.3966    2.8671   -1.8422 C   0  0  0  0  0  0  0  0  0  0  0  0 
    5.2130    2.3898   -3.0527 C   0  0  0  0  0  0  0  0  0  0  0  0 
    6.1656    3.4477   -3.6370 C   0  0  0  0  0  0  0  0  0  0  0  0 
    7.3038    3.8509   -2.6878 C   0  0  0  0  0  0  0  0  0  0  0  0 
   10.5603    4.1542   -2.7739 C   0  0  2  0  0  0  0  0  0  0  0  0 
   10.3796    4.1078   -4.2955 C   0  0  2  0  0  0  0  0  0  0  0  0 
    8.3807    4.7556   -3.3054 C   0  0  2  0  0  0  0  0  0  0  0  0 
    9.4436    4.9430   -2.3603 O   0  0  0  0  0  0  0  0  0  0  0  0 
    8.9570    4.0795   -4.4308 O   0  0  0  0  0  0  0  0  0  0  0  0 
    1.6093    0.7058   -1.7062 H   0  0  0  0  0  0  0  0  0  0  0  0 
    2.6506    0.9355   -3.1139 H   0  0  0  0  0  0  0  0  0  0  0  0 
    1.6960    2.2894   -2.4923 H   0  0  0  0  0  0  0  0  0  0  0  0 
   12.7138    4.1997   -2.5661 H   0  0  0  0  0  0  0  0  0  0  0  0 
   11.8315    4.8631   -1.1780 H   0  0  0  0  0  0  0  0  0  0  0  0 
   11.9513    5.8068   -2.6752 H   0  0  0  0  0  0  0  0  0  0  0  0 
   12.0695    2.9102   -4.9213 H   0  0  0  0  0  0  0  0  0  0  0  0 
   10.7173    2.9204   -6.0686 H   0  0  0  0  0  0  0  0  0  0  0  0 
   10.5940    1.9739   -4.5732 H   0  0  0  0  0  0  0  0  0  0  0  0 
    7.4898    6.6769   -2.8452 H   0  0  0  0  0  0  0  0  0  0  0  0 
    7.0822    6.0562   -4.4628 H   0  0  0  0  0  0  0  0  0  0  0  0 
    8.7021    6.7157   -4.1424 H   0  0  0  0  0  0  0  0  0  0  0  0 
    4.0085    0.9187   -0.9822 H   0  0  0  0  0  0  0  0  0  0  0  0 
    3.0106    2.2063   -0.3293 H   0  0  0  0  0  0  0  0  0  0  0  0 
    5.0808    3.1860   -1.0447 H   0  0  0  0  0  0  0  0  0  0  0  0 
    3.8211    3.7617   -2.1260 H   0  0  0  0  0  0  0  0  0  0  0  0 
    4.5303    2.0662   -3.8493 H   0  0  0  0  0  0  0  0  0  0  0  0 
    5.7929    1.4985   -2.7683 H   0  0  0  0  0  0  0  0  0  0  0  0 
    5.5811    4.3338   -3.9216 H   0  0  0  0  0  0  0  0  0  0  0  0 
    6.6090    3.0579   -4.5608 H   0  0  0  0  0  0  0  0  0  0  0  0 
    7.8143    2.9468   -2.3305 H   0  0  0  0  0  0  0  0  0  0  0  0 
    6.9123    4.3658   -1.8023 H   0  0  0  0  0  0  0  0  0  0  0  0 
   10.4686    3.1309   -2.3711 H   0  0  0  0  0  0  0  0  0  0  0  0 
   10.7773    5.0392   -4.7333 H   0  0  0  0  0  0  0  0  0  0  0  0 
  1 15  1  0  0  0  0 
  1  5  1  0  0  0  0 
  2 19  1  0  0  0  0 
  3 21  1  0  0  0  0 
  3 23  1  0  0  0  0 
  3 11  1  0  0  0  0 
  4 24  1  0  0  0  0 
  5 27  1  0  0  0  0 
  5 28  1  0  0  0  0 
  6  5  1  0  0  0  0 
  6 29  1  0  0  0  0 
  7 32  1  0  0  0  0 
  7  6  1  0  0  0  0 
  8  7  1  0  0  0  0 
  8  9  1  0  0  0  0 
  9 35  1  0  0  0  0 
  9 36  1  0  0  0  0 
 10 37  1  1  0  0  0 
 10 13  1  0  0  0  0 
 10  2  1  0  0  0  0 
 11 38  1  6  0  0  0 
 11 10  1  0  0  0  0 
 12  4  1  6  0  0  0 
 12  9  1  0  0  0  0 
 12 13  1  0  0  0  0 
 14 11  1  0  0  0  0 
 14 12  1  0  0  0  0 
 16  1  1  0  0  0  0 
 17  1  1  0  0  0  0 
 18  2  1  0  0  0  0 
 20  2  1  0  0  0  0 
 22  3  1  0  0  0  0 
 25  4  1  0  0  0  0 
 26  4  1  0  0  0  0 
 30  6  1  0  0  0  0 
 31  7  1  0  0  0  0 
 33  8  1  0  0  0  0 
 34  8  1  0  0  0  0 
M  END 
>  <HBA> 
2 
 
>  <HBD> 
0 
 
>  <TPSA> 
18.46 
 
>  <cid> 
21532 
 
>  <dipole> 
1.03 
 
>  <excitation_energy_1> 
6.365 
 
>  <excitation_energy_2> 
6.57 
 
>  <excitation_energy_3> 
6.634 
 
>  <excitation_energy_4> 
6.728 
 
>  <homo_energy> 
-6.602 
 
>  <homo_lumo_gap> 
9.029 
 
>  <logP> 
3.497 
 
>  <lumo_energy> 
2.427 
 
>  <melting_point> 
-14.85 
 
>  <molecular_refractivity> 
59.89 
 
>  <oscillator_strength_1> 
0.0063 
 
>  <oscillator_strength_2> 
0.012 
 
>  <oscillator_strength_3> 
0.0096 
 
>  <oscillator_strength_4> 
0.0047 
 
>  <open_babel_can_smiles> 
CCCCCC[C@]1(C)O[C@@H]([C@H](O1)C)C 
 
>  <mulliken_charges> 
38 
1   -0.443226 
2   -0.464146 
3   -0.464317 
4   -0.457033 
5   -0.248225 
6   -0.251826 
7   -0.258114 
8   -0.269091 
9   -0.268607 
10   0.146217 
11   0.148145 
12   0.542765 
13   -0.537455 
14   -0.534163 
15   0.141068 
16   0.146454 
17   0.139966 
18   0.144741 
19   0.163242 
20   0.15378 
21   0.145189 
22   0.162947 
23   0.153859 
24   0.149568 
25   0.153401 
26   0.148303 
27   0.129029 
28   0.129622 
29   0.133501 
30   0.123987 
31   0.131923 
32   0.125401 
33   0.127757 
34   0.151465 
35   0.131032 
36   0.139845 
37   0.116287 
38   0.116713 
 
>  <lowdin_charges> 
38 
1   -0.449633 
2   -0.446306 
3   -0.444829 
4   -0.45805 
5   -0.273606 
6   -0.280056 
7   -0.277746 
8   -0.280947 
9   -0.290205 
10   -0.005665 
11   -0.006109 
12   0.220862 
13   -0.271447 
14   -0.274432 
15   0.150429 
16   0.147367 
17   0.146122 
18   0.154499 
19   0.16087 
20   0.154828 
21   0.152277 
22   0.161102 
23   0.155725 
24   0.158365 
25   0.158406 
26   0.15791 
27   0.138889 
28   0.141279 
29   0.142458 
30   0.136374 
31   0.14296 
32   0.137028 
33   0.13852 
34   0.152575 
35   0.146967 
36   0.149377 
37   0.125846 
38   0.127994 
 
$$$$ 
 
