PCCDB-ID:  21071 
public computational chemistry database (PCCDB) project, http://pccdb.org 
 
 31 32  0  0  0  0  0  0  0  0999 V2000 
    0.5553   -0.3442   -0.9026 C   0  0  0  0  0  0  0  0  0  0  0  0 
    8.6639   -6.0563   -0.8595 C   0  0  0  0  0  0  0  0  0  0  0  0 
    2.7577    0.1496    0.2530 C   0  0  0  0  0  0  0  0  0  0  0  0 
    2.8129   -1.0449   -1.8253 C   0  0  0  0  0  0  0  0  0  0  0  0 
    8.4664   -3.6742   -1.7056 C   0  0  0  0  0  0  0  0  0  0  0  0 
    7.1671   -4.3075    0.2078 C   0  0  0  0  0  0  0  0  0  0  0  0 
    4.1487    0.0660    0.3353 C   0  0  0  0  0  0  0  0  0  0  0  0 
    4.2007   -1.1307   -1.7431 C   0  0  0  0  0  0  0  0  0  0  0  0 
    7.9201   -2.3904   -1.6487 C   0  0  0  0  0  0  0  0  0  0  0  0 
    6.6202   -3.0281    0.2642 C   0  0  0  0  0  0  0  0  0  0  0  0 
    6.4120   -0.6402   -0.5848 C   0  0  0  0  0  0  0  0  0  0  0  0 
    2.0635   -0.4055   -0.8275 C   0  0  0  0  0  0  0  0  0  0  0  0 
    8.0986   -4.6569   -0.7807 C   0  0  0  0  0  0  0  0  0  0  0  0 
    4.8948   -0.5731   -0.6604 C   0  0  0  0  0  0  0  0  0  0  0  0 
    6.9897   -2.0441   -0.6637 C   0  0  0  0  0  0  0  0  0  0  0  0 
    0.1671    0.5697   -0.4398 H   0  0  0  0  0  0  0  0  0  0  0  0 
    0.0938   -1.1927   -0.3794 H   0  0  0  0  0  0  0  0  0  0  0  0 
    0.2041   -0.3732   -1.9396 H   0  0  0  0  0  0  0  0  0  0  0  0 
    9.6703   -6.0584   -1.2920 H   0  0  0  0  0  0  0  0  0  0  0  0 
    8.0394   -6.7055   -1.4881 H   0  0  0  0  0  0  0  0  0  0  0  0 
    8.7213   -6.5222    0.1302 H   0  0  0  0  0  0  0  0  0  0  0  0 
    2.2047    0.6558    1.0416 H   0  0  0  0  0  0  0  0  0  0  0  0 
    2.3003   -1.4823   -2.6797 H   0  0  0  0  0  0  0  0  0  0  0  0 
    9.1909   -3.9133   -2.4814 H   0  0  0  0  0  0  0  0  0  0  0  0 
    6.8665   -5.0505    0.9439 H   0  0  0  0  0  0  0  0  0  0  0  0 
    4.6622    0.5124    1.1846 H   0  0  0  0  0  0  0  0  0  0  0  0 
    4.7549   -1.6385   -2.5290 H   0  0  0  0  0  0  0  0  0  0  0  0 
    8.2284   -1.6448   -2.3788 H   0  0  0  0  0  0  0  0  0  0  0  0 
    5.8938   -2.7875    1.0370 H   0  0  0  0  0  0  0  0  0  0  0  0 
    6.7368   -0.1637    0.3498 H   0  0  0  0  0  0  0  0  0  0  0  0 
    6.8449   -0.0375   -1.3946 H   0  0  0  0  0  0  0  0  0  0  0  0 
  1 12  1  0  0  0  0 
  1 16  1  0  0  0  0 
  1 17  1  0  0  0  0 
  2 13  1  0  0  0  0 
  2 21  1  0  0  0  0 
  3  7  1  0  0  0  0 
  3 22  1  0  0  0  0 
  4  8  2  0  0  0  0 
  4 12  1  0  0  0  0 
  5  9  2  0  0  0  0 
  5 13  1  0  0  0  0 
  6 10  1  0  0  0  0 
  6 25  1  0  0  0  0 
  7 26  1  0  0  0  0 
  8 14  1  0  0  0  0 
  9 15  1  0  0  0  0 
 10 29  1  0  0  0  0 
 11 30  1  0  0  0  0 
 12  3  2  0  0  0  0 
 13  6  2  0  0  0  0 
 14 11  1  0  0  0  0 
 14  7  2  0  0  0  0 
 15 11  1  0  0  0  0 
 15 10  2  0  0  0  0 
 18  1  1  0  0  0  0 
 19  2  1  0  0  0  0 
 20  2  1  0  0  0  0 
 23  4  1  0  0  0  0 
 24  5  1  0  0  0  0 
 27  8  1  0  0  0  0 
 28  9  1  0  0  0  0 
 31 11  1  0  0  0  0 
M  END 
>  <HBA> 
0 
 
>  <HBD> 
0 
 
>  <TPSA> 
0.0 
 
>  <cid> 
21071 
 
>  <dipole> 
0.29 
 
>  <excitation_energy_1> 
5.035 
 
>  <excitation_energy_2> 
5.163 
 
>  <excitation_energy_3> 
5.308 
 
>  <excitation_energy_4> 
5.43 
 
>  <homo_energy> 
-6.014 
 
>  <homo_lumo_gap> 
6.049 
 
>  <logP> 
3.894 
 
>  <lumo_energy> 
0.035 
 
>  <melting_point> 
47.22 
 
>  <molecular_refractivity> 
65.83 
 
>  <oscillator_strength_1> 
0.0191 
 
>  <oscillator_strength_2> 
0.0043 
 
>  <oscillator_strength_3> 
0.0902 
 
>  <oscillator_strength_4> 
0.0041 
 
>  <open_babel_can_smiles> 
Cc1ccc(cc1)Cc1ccc(cc1)C 
 
>  <mulliken_charges> 
31 
1   -0.529275 
2   -0.529209 
3   -0.177029 
4   -0.180139 
5   -0.177691 
6   -0.179566 
7   -0.197119 
8   -0.173842 
9   -0.197138 
10   -0.173739 
11   -0.440571 
12   0.176556 
13   0.176695 
14   0.184512 
15   0.184466 
16   0.155539 
17   0.164125 
18   0.155176 
19   0.155144 
20   0.164217 
21   0.155483 
22   0.118642 
23   0.119759 
24   0.118773 
25   0.119818 
26   0.119794 
27   0.129123 
28   0.119989 
29   0.128898 
30   0.154122 
31   0.154487 
 
>  <lowdin_charges> 
31 
1   -0.442695 
2   -0.442532 
3   -0.168762 
4   -0.166187 
5   -0.167777 
6   -0.166514 
7   -0.17094 
8   -0.160071 
9   -0.17177 
10   -0.158615 
11   -0.272072 
12   -0.002197 
13   -0.0024 
14   -0.007269 
15   -0.007203 
16   0.157648 
17   0.16162 
18   0.156053 
19   0.156309 
20   0.162178 
21   0.156829 
22   0.154104 
23   0.154026 
24   0.153497 
25   0.154279 
26   0.153453 
27   0.159503 
28   0.153734 
29   0.158666 
30   0.157087 
31   0.158017 
 
$$$$ 
 
