PCCDB-ID:  61202 
public computational chemistry database (PCCDB) project, http://pccdb.org 
 
 28 28  0  0  1  0  0  0  0  0999 V2000 
    5.0124   -3.9814   -1.8951 C   0  0  0  0  0  0  0  0  0  0  0  0 
    4.3312   -3.1914   -0.7735 C   0  0  0  0  0  0  0  0  0  0  0  0 
    5.1415    3.2185   -2.1468 C   0  0  0  0  0  0  0  0  0  0  0  0 
    4.0272    3.0923   -1.3162 C   0  0  0  0  0  0  0  0  0  0  0  0 
    6.2485    2.3924   -1.9421 C   0  0  0  0  0  0  0  0  0  0  0  0 
    5.0262   -1.8582   -0.4713 C   0  0  0  0  0  0  0  0  0  0  0  0 
    4.0200    2.1443   -0.2908 C   0  0  0  0  0  0  0  0  0  0  0  0 
    6.2365    1.4439   -0.9187 C   0  0  0  0  0  0  0  0  0  0  0  0 
    5.0876    0.2542    1.0153 C   0  0  0  0  0  0  0  0  0  0  0  0 
    5.1235    1.3016   -0.0772 C   0  0  0  0  0  0  0  0  0  0  0  0 
    4.3287   -1.0430    0.6269 C   0  0  1  0  0  0  0  0  0  0  0  0 
    2.9693   -0.7611    0.2923 O   0  0  0  0  0  0  0  0  0  0  0  0 
    4.4916   -4.9258   -2.0906 H   0  0  0  0  0  0  0  0  0  0  0  0 
    6.0523   -4.2215   -1.6405 H   0  0  0  0  0  0  0  0  0  0  0  0 
    5.0266   -3.4100   -2.8317 H   0  0  0  0  0  0  0  0  0  0  0  0 
    4.3063   -3.8005    0.1415 H   0  0  0  0  0  0  0  0  0  0  0  0 
    3.2849   -2.9933   -1.0335 H   0  0  0  0  0  0  0  0  0  0  0  0 
    5.1507    3.9590   -2.9421 H   0  0  0  0  0  0  0  0  0  0  0  0 
    3.1641    3.7372   -1.4601 H   0  0  0  0  0  0  0  0  0  0  0  0 
    7.1247    2.4881   -2.5782 H   0  0  0  0  0  0  0  0  0  0  0  0 
    5.0805   -1.2536   -1.3889 H   0  0  0  0  0  0  0  0  0  0  0  0 
    6.0671   -2.0441   -0.1673 H   0  0  0  0  0  0  0  0  0  0  0  0 
    3.1574    2.0646    0.3663 H   0  0  0  0  0  0  0  0  0  0  0  0 
    7.1058    0.8088   -0.7640 H   0  0  0  0  0  0  0  0  0  0  0  0 
    4.5906    0.6676    1.9009 H   0  0  0  0  0  0  0  0  0  0  0  0 
    6.1090   -0.0134    1.3137 H   0  0  0  0  0  0  0  0  0  0  0  0 
    4.2613   -1.6614    1.5307 H   0  0  0  0  0  0  0  0  0  0  0  0 
    2.9854   -0.1884   -0.4933 H   0  0  0  0  0  0  0  0  0  0  0  0 
  1 14  1  0  0  0  0 
  1  2  1  0  0  0  0 
  2  6  1  0  0  0  0 
  2 16  1  0  0  0  0 
  3  5  2  0  0  0  0 
  3  4  1  0  0  0  0 
  4  7  2  0  0  0  0 
  5  8  1  0  0  0  0 
  6 22  1  0  0  0  0 
  6 11  1  0  0  0  0 
  7 10  1  0  0  0  0 
  7 23  1  0  0  0  0 
  8 24  1  0  0  0  0 
  8 10  2  0  0  0  0 
  9 26  1  0  0  0  0 
  9 25  1  0  0  0  0 
 10  9  1  0  0  0  0 
 11  9  1  0  0  0  0 
 11 27  1  1  0  0  0 
 12 11  1  0  0  0  0 
 13  1  1  0  0  0  0 
 15  1  1  0  0  0  0 
 17  2  1  0  0  0  0 
 18  3  1  0  0  0  0 
 19  4  1  0  0  0  0 
 20  5  1  0  0  0  0 
 21  6  1  0  0  0  0 
 28 12  1  0  0  0  0 
M  END 
>  <HBA> 
1 
 
>  <HBD> 
1 
 
>  <TPSA> 
20.23 
 
>  <cid> 
61202 
 
>  <dipole> 
1.55 
 
>  <excitation_energy_1> 
5.253 
 
>  <excitation_energy_2> 
5.739 
 
>  <excitation_energy_3> 
6.055 
 
>  <excitation_energy_4> 
6.145 
 
>  <homo_energy> 
-6.558 
 
>  <homo_lumo_gap> 
6.414 
 
>  <logP> 
2.39 
 
>  <lumo_energy> 
-0.144 
 
>  <melting_point> 
23.11 
 
>  <molecular_refractivity> 
51.8 
 
>  <oscillator_strength_1> 
0.0015 
 
>  <oscillator_strength_2> 
0.0588 
 
>  <oscillator_strength_3> 
0.0075 
 
>  <oscillator_strength_4> 
0.0468 
 
>  <open_babel_can_smiles> 
CCC[C@@H](Cc1ccccc1)O 
 
>  <mulliken_charges> 
28 
1   -0.443013 
2   -0.244689 
3   -0.131315 
4   -0.126314 
5   -0.127675 
6   -0.271915 
7   -0.209489 
8   -0.180117 
9   -0.354835 
10   0.149754 
11   0.136493 
12   -0.627357 
13   0.142847 
14   0.138277 
15   0.140277 
16   0.128584 
17   0.149187 
18   0.130548 
19   0.132101 
20   0.130911 
21   0.131823 
22   0.122826 
23   0.142314 
24   0.126207 
25   0.153201 
26   0.138411 
27   0.132873 
28   0.390087 
 
>  <lowdin_charges> 
28 
1   -0.443175 
2   -0.272247 
3   -0.16001 
4   -0.155939 
5   -0.154651 
6   -0.294666 
7   -0.181379 
8   -0.168092 
9   -0.290937 
10   -0.007035 
11   0.001008 
12   -0.464741 
13   0.149707 
14   0.143153 
15   0.145489 
16   0.13903 
17   0.147667 
18   0.158487 
19   0.159002 
20   0.158566 
21   0.141983 
22   0.139164 
23   0.161897 
24   0.156045 
25   0.158606 
26   0.150711 
27   0.142701 
28   0.339656 
 
$$$$ 
 
