PCCDB-ID:  22505 
public computational chemistry database (PCCDB) project, http://pccdb.org 
 
 20 19  0  0  0  0  0  0  0  0999 V2000 
    3.2737    1.9026    0.3946 C   0  0  0  0  0  0  0  0  0  0  0  0 
    3.2054    0.8399    2.6245 C   0  0  0  0  0  0  0  0  0  0  0  0 
    3.7323   -2.6331   -0.7487 C   0  0  0  0  0  0  0  0  0  0  0  0 
    3.6672   -3.6949    1.4817 C   0  0  0  0  0  0  0  0  0  0  0  0 
    3.3238   -0.4241    0.5480 N   0  0  0  0  0  0  0  0  0  0  0  0 
    3.6155   -1.3683    1.3274 N   0  0  0  0  0  0  0  0  0  0  0  0 
    2.9473    0.7327    1.1961 N   0  0  0  0  0  0  0  0  0  0  0  0 
    3.9920   -2.5252    0.6794 N   0  0  0  0  0  0  0  0  0  0  0  0 
    2.6817    2.7542    0.7441 H   0  0  0  0  0  0  0  0  0  0  0  0 
    3.0146    1.6921   -0.6453 H   0  0  0  0  0  0  0  0  0  0  0  0 
    4.3426    2.1726    0.4422 H   0  0  0  0  0  0  0  0  0  0  0  0 
    2.8411    1.8135    2.9628 H   0  0  0  0  0  0  0  0  0  0  0  0 
    4.2774    0.7451    2.8638 H   0  0  0  0  0  0  0  0  0  0  0  0 
    2.6724    0.0503    3.1584 H   0  0  0  0  0  0  0  0  0  0  0  0 
    4.0971   -3.6065   -1.0870 H   0  0  0  0  0  0  0  0  0  0  0  0 
    4.2639   -1.8433   -1.2836 H   0  0  0  0  0  0  0  0  0  0  0  0 
    2.6598   -2.5395   -0.9867 H   0  0  0  0  0  0  0  0  0  0  0  0 
    4.2590   -4.5464    1.1317 H   0  0  0  0  0  0  0  0  0  0  0  0 
    2.5983   -3.9654    1.4356 H   0  0  0  0  0  0  0  0  0  0  0  0 
    3.9275   -3.4839    2.5212 H   0  0  0  0  0  0  0  0  0  0  0  0 
  1 11  1  0  0  0  0 
  1  9  1  0  0  0  0 
  1  7  1  0  0  0  0 
  2 13  1  0  0  0  0 
  2 12  1  0  0  0  0 
  2 14  1  0  0  0  0 
  3  8  1  0  0  0  0 
  4 20  1  0  0  0  0 
  5  7  1  0  0  0  0 
  5  6  1  0  0  0  0 
  7  2  1  0  0  0  0 
  8  6  1  0  0  0  0 
  8  4  1  0  0  0  0 
 10  1  1  0  0  0  0 
 15  3  1  0  0  0  0 
 16  3  1  0  0  0  0 
 17  3  1  0  0  0  0 
 18  4  1  0  0  0  0 
 19  4  1  0  0  0  0 
M  RAD  2   5   2   6   2 
M  END 
>  <HBA> 
4 
 
>  <HBD> 
0 
 
>  <TPSA> 
31.2 
 
>  <cid> 
22505 
 
>  <dipole> 
0.0 
 
>  <excitation_energy_1> 
4.517 
 
>  <excitation_energy_2> 
5.057 
 
>  <excitation_energy_3> 
5.107 
 
>  <excitation_energy_4> 
5.109 
 
>  <homo_energy> 
-5.056 
 
>  <homo_lumo_gap> 
5.287 
 
>  <logP> 
0.392 
 
>  <lumo_energy> 
0.231 
 
>  <melting_point> 
-4.44 
 
>  <molecular_refractivity> 
31.99 
 
>  <oscillator_strength_1> 
0.2053 
 
>  <oscillator_strength_2> 
0.0 
 
>  <oscillator_strength_3> 
0.0023 
 
>  <oscillator_strength_4> 
0.1351 
 
>  <open_babel_can_smiles> 
CN([N][N]N(C)C)C 
 
>  <mulliken_charges> 
20 
1   -0.289709 
2   -0.295937 
3   -0.295947 
4   -0.289721 
5   -0.10221 
6   -0.102206 
7   -0.239764 
8   -0.239772 
9   0.151079 
10   0.171483 
11   0.136951 
12   0.14875 
13   0.144504 
14   0.174852 
15   0.148752 
16   0.174904 
17   0.144479 
18   0.151083 
19   0.136945 
20   0.171485 
 
>  <lowdin_charges> 
20 
1   -0.352941 
2   -0.367168 
3   -0.367158 
4   -0.35296 
5   -0.098826 
6   -0.098829 
7   -0.087386 
8   -0.087395 
9   0.151848 
10   0.163482 
11   0.131596 
12   0.154341 
13   0.139174 
14   0.165882 
15   0.154345 
16   0.165907 
17   0.139154 
18   0.151852 
19   0.131595 
20   0.163487 
 
$$$$ 
 
