PCCDB-ID:  12375 
public computational chemistry database (PCCDB) project, http://pccdb.org 
 
 22 21  0  0  0  0  0  0  0  0999 V2000 
    7.7907   -3.7827   -2.9016 C   0  0  0  0  0  0  0  0  0  0  0  0 
    6.7874    2.6552   -1.4962 C   0  0  0  0  0  0  0  0  0  0  0  0 
    6.4256   -3.1147   -2.8780 C   0  0  0  0  0  0  0  0  0  0  0  0 
    5.7179    1.5746   -1.4966 C   0  0  0  0  0  0  0  0  0  0  0  0 
    5.1638   -1.5158   -1.6824 C   0  0  0  0  0  0  0  0  0  0  0  0 
    5.2420   -0.5455   -0.5087 C   0  0  0  0  0  0  0  0  0  0  0  0 
    6.3908   -2.2036   -1.7939 O   0  0  0  0  0  0  0  0  0  0  0  0 
    6.1701    0.5085   -0.6775 O   0  0  0  0  0  0  0  0  0  0  0  0 
    7.8561   -4.4922   -3.7338 H   0  0  0  0  0  0  0  0  0  0  0  0 
    7.9687   -4.3247   -1.9672 H   0  0  0  0  0  0  0  0  0  0  0  0 
    8.5805   -3.0338   -3.0182 H   0  0  0  0  0  0  0  0  0  0  0  0 
    6.4745    3.5053   -2.1126 H   0  0  0  0  0  0  0  0  0  0  0  0 
    7.7274    2.2616   -1.8960 H   0  0  0  0  0  0  0  0  0  0  0  0 
    6.9718    3.0107   -0.4774 H   0  0  0  0  0  0  0  0  0  0  0  0 
    5.6263   -3.8689   -2.7686 H   0  0  0  0  0  0  0  0  0  0  0  0 
    6.2381   -2.5828   -3.8272 H   0  0  0  0  0  0  0  0  0  0  0  0 
    5.5275    1.2328   -2.5269 H   0  0  0  0  0  0  0  0  0  0  0  0 
    4.7646    1.9715   -1.1053 H   0  0  0  0  0  0  0  0  0  0  0  0 
    4.9318   -0.9816   -2.6198 H   0  0  0  0  0  0  0  0  0  0  0  0 
    4.3322   -2.2214   -1.5009 H   0  0  0  0  0  0  0  0  0  0  0  0 
    5.5720   -1.0985    0.3771 H   0  0  0  0  0  0  0  0  0  0  0  0 
    4.2319   -0.1477   -0.3097 H   0  0  0  0  0  0  0  0  0  0  0  0 
  1  3  1  0  0  0  0 
  1 10  1  0  0  0  0 
  2 14  1  0  0  0  0 
  3 15  1  0  0  0  0 
  3  7  1  0  0  0  0 
  4  2  1  0  0  0  0 
  4 18  1  0  0  0  0 
  4  8  1  0  0  0  0 
  5 20  1  0  0  0  0 
  5  6  1  0  0  0  0 
  6 22  1  0  0  0  0 
  6 21  1  0  0  0  0 
  7  5  1  0  0  0  0 
  8  6  1  0  0  0  0 
  9  1  1  0  0  0  0 
 11  1  1  0  0  0  0 
 12  2  1  0  0  0  0 
 13  2  1  0  0  0  0 
 16  3  1  0  0  0  0 
 17  4  1  0  0  0  0 
 19  5  1  0  0  0  0 
M  END 
>  <HBA> 
2 
 
>  <HBD> 
0 
 
>  <TPSA> 
18.46 
 
>  <cid> 
12375 
 
>  <dipole> 
2.06 
 
>  <excitation_energy_1> 
6.303 
 
>  <excitation_energy_2> 
6.488 
 
>  <excitation_energy_3> 
6.82 
 
>  <excitation_energy_4> 
6.837 
 
>  <homo_energy> 
-6.68 
 
>  <homo_lumo_gap> 
8.942 
 
>  <logP> 
1.059 
 
>  <lumo_energy> 
2.261 
 
>  <melting_point> 
-44.46 
 
>  <molecular_refractivity> 
33.13 
 
>  <oscillator_strength_1> 
0.0086 
 
>  <oscillator_strength_2> 
0.0471 
 
>  <oscillator_strength_3> 
0.0046 
 
>  <oscillator_strength_4> 
0.0065 
 
>  <open_babel_can_smiles> 
CCOCCOCC 
 
>  <mulliken_charges> 
22 
1   -0.452513 
2   -0.451303 
3   -0.001231 
4   -0.010706 
5   -0.021069 
6   -0.031377 
7   -0.460807 
8   -0.458194 
9   0.140726 
10   0.158114 
11   0.160953 
12   0.139605 
13   0.161054 
14   0.157731 
15   0.115362 
16   0.116479 
17   0.120505 
18   0.114762 
19   0.119731 
20   0.113009 
21   0.155532 
22   0.113635 
 
>  <lowdin_charges> 
22 
1   -0.449322 
2   -0.447963 
3   -0.124648 
4   -0.125027 
5   -0.146851 
6   -0.138448 
7   -0.268608 
8   -0.266408 
9   0.153375 
10   0.157048 
11   0.159003 
12   0.152811 
13   0.158561 
14   0.15591 
15   0.123192 
16   0.123449 
17   0.122964 
18   0.122376 
19   0.127012 
20   0.127674 
21   0.156242 
22   0.12766 
 
$$$$ 
 
