PCCDB-ID:  20702 
public computational chemistry database (PCCDB) project, http://pccdb.org 
 
 28 29  0  0  0  0  0  0  0  0999 V2000 
    0.2866   -0.7976   -0.6797 C   0  0  0  0  0  0  0  0  0  0  0  0 
    4.9000   -2.0849   -1.4768 C   0  0  0  0  0  0  0  0  0  0  0  0 
    6.1088    2.4240    1.7366 C   0  0  0  0  0  0  0  0  0  0  0  0 
    4.2581    2.9511    0.2817 C   0  0  0  0  0  0  0  0  0  0  0  0 
    6.1856    3.7535    2.1304 C   0  0  0  0  0  0  0  0  0  0  0  0 
    4.3369    4.2884    0.6536 C   0  0  0  0  0  0  0  0  0  0  0  0 
    2.5248    0.3092    0.1186 C   0  0  0  0  0  0  0  0  0  0  0  0 
    1.7539   -0.6016   -0.5283 C   0  0  0  0  0  0  0  0  0  0  0  0 
    3.8612   -1.2008   -0.8851 C   0  0  0  0  0  0  0  0  0  0  0  0 
    5.1351    1.9944    0.8208 C   0  0  0  0  0  0  0  0  0  0  0  0 
    5.2963    4.6924    1.5890 C   0  0  0  0  0  0  0  0  0  0  0  0 
    3.9039   -0.0658   -0.1050 C   0  0  0  0  0  0  0  0  0  0  0  0 
    5.1429    0.5544    0.4156 C   0  0  0  0  0  0  0  0  0  0  0  0 
    5.3238    6.0119    1.9309 O   0  0  0  0  0  0  0  0  0  0  0  0 
    6.1797   -0.1014    0.5294 O   0  0  0  0  0  0  0  0  0  0  0  0 
    2.5661   -1.5208   -1.1560 O   0  0  0  0  0  0  0  0  0  0  0  0 
   -0.2498   -0.0102   -0.1430 H   0  0  0  0  0  0  0  0  0  0  0  0 
   -0.0346   -1.7667   -0.2778 H   0  0  0  0  0  0  0  0  0  0  0  0 
   -0.0175   -0.7626   -1.7332 H   0  0  0  0  0  0  0  0  0  0  0  0 
    5.8886   -1.6867   -1.2484 H   0  0  0  0  0  0  0  0  0  0  0  0 
    4.7708   -2.1695   -2.5627 H   0  0  0  0  0  0  0  0  0  0  0  0 
    4.8342   -3.0973   -1.0583 H   0  0  0  0  0  0  0  0  0  0  0  0 
    6.8042    1.6904    2.1313 H   0  0  0  0  0  0  0  0  0  0  0  0 
    3.5247    2.6540   -0.4603 H   0  0  0  0  0  0  0  0  0  0  0  0 
    6.9362    4.0699    2.8528 H   0  0  0  0  0  0  0  0  0  0  0  0 
    3.6716    5.0332    0.2286 H   0  0  0  0  0  0  0  0  0  0  0  0 
    2.1649    1.1296    0.7223 H   0  0  0  0  0  0  0  0  0  0  0  0 
    6.0390    6.1593    2.5697 H   0  0  0  0  0  0  0  0  0  0  0  0 
  1  8  1  0  0  0  0 
  1 18  1  0  0  0  0 
  1 17  1  0  0  0  0 
  2 20  1  0  0  0  0 
  2 22  1  0  0  0  0 
  2  9  1  0  0  0  0 
  3  5  1  0  0  0  0 
  3 23  1  0  0  0  0 
  4  6  2  0  0  0  0 
  4 10  1  0  0  0  0 
  5 25  1  0  0  0  0 
  6 11  1  0  0  0  0 
  7 27  1  0  0  0  0 
  8  7  2  0  0  0  0 
  9 12  2  0  0  0  0 
 10  3  2  0  0  0  0 
 11 14  1  0  0  0  0 
 11  5  2  0  0  0  0 
 12  7  1  0  0  0  0 
 12 13  1  0  0  0  0 
 13 15  2  0  0  0  0 
 13 10  1  0  0  0  0 
 14 28  1  0  0  0  0 
 16  9  1  0  0  0  0 
 16  8  1  0  0  0  0 
 19  1  1  0  0  0  0 
 21  2  1  0  0  0  0 
 24  4  1  0  0  0  0 
 26  6  1  0  0  0  0 
M  END 
>  <HBA> 
3 
 
>  <HBD> 
1 
 
>  <TPSA> 
50.44 
 
>  <cid> 
20702 
 
>  <dipole> 
2.23 
 
>  <excitation_energy_1> 
3.69 
 
>  <excitation_energy_2> 
3.926 
 
>  <excitation_energy_3> 
4.509 
 
>  <excitation_energy_4> 
4.764 
 
>  <homo_energy> 
-5.853 
 
>  <homo_lumo_gap> 
4.555 
 
>  <logP> 
2.833 
 
>  <lumo_energy> 
-1.298 
 
>  <melting_point> 
113.63 
 
>  <molecular_refractivity> 
60.54 
 
>  <oscillator_strength_1> 
0.0028 
 
>  <oscillator_strength_2> 
0.1113 
 
>  <oscillator_strength_3> 
0.2531 
 
>  <oscillator_strength_4> 
0.0002 
 
>  <open_babel_can_smiles> 
Oc1ccc(cc1)C(=O)c1cc(oc1C)C 
 
>  <mulliken_charges> 
28 
1   -0.529112 
2   -0.535816 
3   -0.159169 
4   -0.183787 
5   -0.198932 
6   -0.169089 
7   -0.255631 
8   0.342421 
9   0.340272 
10   0.075767 
11   0.360083 
12   -0.007555 
13   0.321346 
14   -0.634979 
15   -0.496946 
16   -0.46655 
17   0.167807 
18   0.172965 
19   0.171766 
20   0.205778 
21   0.164431 
22   0.172284 
23   0.161862 
24   0.151259 
25   0.125521 
26   0.143975 
27   0.14873 
28   0.4113 
 
>  <lowdin_charges> 
28 
1   -0.439966 
2   -0.445542 
3   -0.118825 
4   -0.139869 
5   -0.213347 
6   -0.191525 
7   -0.225428 
8   0.06866 
9   0.110305 
10   -0.063077 
11   0.114668 
12   -0.101736 
13   0.15852 
14   -0.369518 
15   -0.273788 
16   -0.104305 
17   0.170555 
18   0.167351 
19   0.165901 
20   0.188826 
21   0.163565 
22   0.169813 
23   0.177763 
24   0.169999 
25   0.156871 
26   0.170499 
27   0.172792 
28   0.360839 
 
$$$$ 
 
