PCCDB-ID:  7441 
public computational chemistry database (PCCDB) project, http://pccdb.org 
 
 19 19  0  0  0  0  0  0  0  0999 V2000 
    0.9593    0.1182    0.0630 C   0  0  0  0  0  0  0  0  0  0  0  0 
    5.2893    0.1275   -0.1534 C   0  0  0  0  0  0  0  0  0  0  0  0 
    4.6001   -1.0694   -0.0510 C   0  0  0  0  0  0  0  0  0  0  0  0 
    3.1710    1.3189   -0.1304 C   0  0  0  0  0  0  0  0  0  0  0  0 
    2.4656    0.1269   -0.0232 C   0  0  0  0  0  0  0  0  0  0  0  0 
    4.5661    1.3199   -0.1952 C   0  0  0  0  0  0  0  0  0  0  0  0 
    3.1923   -1.0927    0.0135 C   0  0  0  0  0  0  0  0  0  0  0  0 
    2.5259   -2.2946    0.1665 N   0  0  0  0  0  0  0  0  0  0  0  0 
    5.2759    2.5861   -0.3087 N   0  0  0  0  0  0  0  0  0  0  0  0 
    6.5092    2.5552   -0.3556 O   0  0  0  0  0  0  0  0  0  0  0  0 
    4.6074    3.6233   -0.3524 O   0  0  0  0  0  0  0  0  0  0  0  0 
    0.5632    1.1370    0.0606 H   0  0  0  0  0  0  0  0  0  0  0  0 
    0.6116   -0.3748    0.9806 H   0  0  0  0  0  0  0  0  0  0  0  0 
    0.4998   -0.4106   -0.7852 H   0  0  0  0  0  0  0  0  0  0  0  0 
    6.3706    0.1556   -0.2056 H   0  0  0  0  0  0  0  0  0  0  0  0 
    5.1488   -2.0075   -0.0183 H   0  0  0  0  0  0  0  0  0  0  0  0 
    2.6470    2.2671   -0.1630 H   0  0  0  0  0  0  0  0  0  0  0  0 
    3.0448   -3.1336   -0.0548 H   0  0  0  0  0  0  0  0  0  0  0  0 
    1.5591   -2.3330   -0.1239 H   0  0  0  0  0  0  0  0  0  0  0  0 
  1 13  1  0  0  0  0 
  2  3  1  0  0  0  0 
  3 16  1  0  0  0  0 
  3  7  2  0  0  0  0 
  4  5  2  0  0  0  0 
  5  7  1  0  0  0  0 
  5  1  1  0  0  0  0 
  6  2  2  0  0  0  0 
  6  4  1  0  0  0  0 
  7  8  1  0  0  0  0 
  9  6  1  0  0  0  0 
 10  9  2  0  0  0  0 
 11  9  2  0  0  0  0 
 12  1  1  0  0  0  0 
 14  1  1  0  0  0  0 
 15  2  1  0  0  0  0 
 17  4  1  0  0  0  0 
 18  8  1  0  0  0  0 
 19  8  1  0  0  0  0 
M  END 
>  <HBA> 
1 
 
>  <HBD> 
1 
 
>  <TPSA> 
71.84 
 
>  <cid> 
7441 
 
>  <dipole> 
7.25 
 
>  <excitation_energy_1> 
3.773 
 
>  <excitation_energy_2> 
3.848 
 
>  <excitation_energy_3> 
4.328 
 
>  <excitation_energy_4> 
4.342 
 
>  <homo_energy> 
-6.158 
 
>  <homo_lumo_gap> 
4.256 
 
>  <logP> 
2.59 
 
>  <lumo_energy> 
-1.902 
 
>  <melting_point> 
97.11 
 
>  <molecular_refractivity> 
44.63 
 
>  <oscillator_strength_1> 
0.0031 
 
>  <oscillator_strength_2> 
0.3119 
 
>  <oscillator_strength_3> 
0.0083 
 
>  <oscillator_strength_4> 
0.0005 
 
>  <open_babel_can_smiles> 
O=N(=O)c1ccc(c(c1)C)N 
 
>  <mulliken_charges> 
19 
1   -0.557132 
2   -0.16042 
3   -0.183006 
4   -0.232623 
5   0.159195 
6   0.28252 
7   0.289913 
8   -0.797406 
9   0.366226 
10   -0.411289 
11   -0.412137 
12   0.17512 
13   0.171978 
14   0.155562 
15   0.177842 
16   0.132533 
17   0.172516 
18   0.333956 
19   0.336652 
 
>  <lowdin_charges> 
19 
1   -0.44597 
2   -0.128111 
3   -0.195487 
4   -0.139738 
5   -0.033873 
6   -0.026095 
7   0.072968 
8   -0.465273 
9   0.306395 
10   -0.262888 
11   -0.265725 
12   0.168376 
13   0.16332 
14   0.154893 
15   0.184232 
16   0.160181 
17   0.183249 
18   0.285076 
19   0.284471 
 
$$$$ 
 
