PCCDB-ID:  19953 
public computational chemistry database (PCCDB) project, http://pccdb.org 
 
 17 17  0  0  0  0  0  0  0  0999 V2000 
    1.1550    0.2775    0.4083 C   0  0  0  0  0  0  0  0  0  0  0  0 
    3.1759   -1.1271    0.5898 C   0  0  0  0  0  0  0  0  0  0  0  0 
    4.9555    1.2808   -2.2031 C   0  0  0  0  0  0  0  0  0  0  0  0 
    3.1281    2.5482   -2.3698 C   0  0  0  0  0  0  0  0  0  0  0  0 
    3.1412    0.7918   -0.9496 C   0  0  0  0  0  0  0  0  0  0  0  0 
    4.3824    2.3389   -2.7924 N   0  0  0  0  0  0  0  0  0  0  0  0 
    4.4150    0.4784   -1.2961 N   0  0  0  0  0  0  0  0  0  0  0  0 
    2.4550    1.8379   -1.4749 N   0  0  0  0  0  0  0  0  0  0  0  0 
    2.5182    0.0147   -0.0265 N   0  0  0  0  0  0  0  0  0  0  0  0 
    0.5175   -0.5908    0.1957 H   0  0  0  0  0  0  0  0  0  0  0  0 
    0.7683    1.1486   -0.1160 H   0  0  0  0  0  0  0  0  0  0  0  0 
    1.1332    0.4619    1.4905 H   0  0  0  0  0  0  0  0  0  0  0  0 
    2.6070   -2.0441    0.3870 H   0  0  0  0  0  0  0  0  0  0  0  0 
    3.2289   -0.9903    1.6780 H   0  0  0  0  0  0  0  0  0  0  0  0 
    4.1815   -1.2274    0.1874 H   0  0  0  0  0  0  0  0  0  0  0  0 
    5.9786    1.0518   -2.5001 H   0  0  0  0  0  0  0  0  0  0  0  0 
    2.6005    3.3948   -2.8083 H   0  0  0  0  0  0  0  0  0  0  0  0 
  1 12  1  0  0  0  0 
  2 14  1  0  0  0  0 
  3  7  1  0  0  0  0 
  4  8  1  0  0  0  0 
  5  9  1  0  0  0  0 
  6  4  2  0  0  0  0 
  6  3  2  0  0  0  0 
  7  5  2  0  0  0  0 
  8  5  1  0  0  0  0 
  9  1  1  0  0  0  0 
  9  2  1  0  0  0  0 
 10  1  1  0  0  0  0 
 11  1  1  0  0  0  0 
 13  2  1  0  0  0  0 
 15  2  1  0  0  0  0 
 16  3  1  0  0  0  0 
 17  4  1  0  0  0  0 
M  RAD  1   8   2 
M  END 
>  <HBA> 
4 
 
>  <HBD> 
0 
 
>  <TPSA> 
41.91 
 
>  <cid> 
19953 
 
>  <dipole> 
2.93 
 
>  <excitation_energy_1> 
4.5 
 
>  <excitation_energy_2> 
4.615 
 
>  <excitation_energy_3> 
4.737 
 
>  <excitation_energy_4> 
5.265 
 
>  <homo_energy> 
-6.321 
 
>  <homo_lumo_gap> 
5.402 
 
>  <logP> 
-0.062 
 
>  <lumo_energy> 
-0.92 
 
>  <melting_point> 
59.18 
 
>  <molecular_refractivity> 
34.03 
 
>  <oscillator_strength_1> 
0.0154 
 
>  <oscillator_strength_2> 
0.0054 
 
>  <oscillator_strength_3> 
0.0 
 
>  <oscillator_strength_4> 
0.0 
 
>  <open_babel_can_smiles> 
CN(C1=NC=[N]=C[N]1)C 
 
>  <mulliken_charges> 
17 
1   -0.321177 
2   -0.321184 
3   0.187405 
4   0.187344 
5   0.679589 
6   -0.401735 
7   -0.462965 
8   -0.462947 
9   -0.44387 
10   0.155936 
11   0.212021 
12   0.155909 
13   0.155905 
14   0.155955 
15   0.212024 
16   0.15589 
17   0.1559 
 
>  <lowdin_charges> 
17 
1   -0.353739 
2   -0.352616 
3   -0.011181 
4   -0.013264 
5   0.141157 
6   -0.20909 
7   -0.210896 
8   -0.211287 
9   -0.075501 
10   0.151755 
11   0.187572 
12   0.149201 
13   0.151318 
14   0.149052 
15   0.186199 
16   0.159532 
17   0.16179 
 
$$$$ 
 
