PCCDB-ID:  25824 
public computational chemistry database (PCCDB) project, http://pccdb.org 
 
 15 15  0  0  0  0  0  0  0  0999 V2000 
    1.2477    0.5852   -0.2956 C   0  0  0  0  0  0  0  0  0  0  0  0 
    0.4244    1.6669    0.4289 C   0  0  0  0  0  0  0  0  0  0  0  0 
    4.9369    0.6348    0.8945 C   0  0  0  0  0  0  0  0  0  0  0  0 
    2.7129    0.6529    0.0130 C   0  0  0  0  0  0  0  0  0  0  0  0 
   -0.9919    1.5085    0.0907 N   0  0  0  0  0  0  0  0  0  0  0  0 
    4.8768    1.1393   -0.3011 N   0  0  0  0  0  0  0  0  0  0  0  0 
    3.6003    1.1490   -0.8028 N   0  0  0  0  0  0  0  0  0  0  0  0 
    3.4059    0.1085    1.5386 S   0  0  0  0  0  0  0  0  0  0  0  0 
    1.1493    0.7123   -1.3796 H   0  0  0  0  0  0  0  0  0  0  0  0 
    0.8369   -0.3969   -0.0380 H   0  0  0  0  0  0  0  0  0  0  0  0 
    0.8489    2.6561    0.1851 H   0  0  0  0  0  0  0  0  0  0  0  0 
    0.5275    1.5349    1.5127 H   0  0  0  0  0  0  0  0  0  0  0  0 
    5.8610    0.5410    1.4517 H   0  0  0  0  0  0  0  0  0  0  0  0 
   -1.1454    1.7801   -0.8799 H   0  0  0  0  0  0  0  0  0  0  0  0 
   -1.5531    2.1462    0.6525 H   0  0  0  0  0  0  0  0  0  0  0  0 
  1 10  1  0  0  0  0 
  1  4  1  0  0  0  0 
  1  2  1  0  0  0  0 
  2 12  1  0  0  0  0 
  3 13  1  0  0  0  0 
  3  8  1  0  0  0  0 
  4  8  1  0  0  0  0 
  5  2  1  0  0  0  0 
  5 15  1  0  0  0  0 
  6  3  2  0  0  0  0 
  7  6  1  0  0  0  0 
  7  4  2  0  0  0  0 
  9  1  1  0  0  0  0 
 11  2  1  0  0  0  0 
 14  5  1  0  0  0  0 
M  END 
>  <HBA> 
4 
 
>  <HBD> 
1 
 
>  <TPSA> 
80.04 
 
>  <cid> 
25824 
 
>  <dipole> 
2.7 
 
>  <excitation_energy_1> 
4.87 
 
>  <excitation_energy_2> 
5.037 
 
>  <excitation_energy_3> 
5.774 
 
>  <excitation_energy_4> 
5.826 
 
>  <homo_energy> 
-6.689 
 
>  <homo_lumo_gap> 
5.646 
 
>  <logP> 
0.74 
 
>  <lumo_energy> 
-1.042 
 
>  <melting_point> 
90.98 
 
>  <molecular_refractivity> 
32.39 
 
>  <oscillator_strength_1> 
0.0 
 
>  <oscillator_strength_2> 
0.0026 
 
>  <oscillator_strength_3> 
0.0141 
 
>  <oscillator_strength_4> 
0.0012 
 
>  <open_babel_can_smiles> 
NCCc1nncs1 
 
>  <mulliken_charges> 
15 
1   -0.312067 
2   -0.142019 
3   -0.120732 
4   0.099233 
5   -0.71608 
6   -0.203752 
7   -0.266824 
8   0.219775 
9   0.1781 
10   0.177175 
11   0.139455 
12   0.150555 
13   0.194674 
14   0.299245 
15   0.303263 
 
>  <lowdin_charges> 
15 
1   -0.275183 
2   -0.199044 
3   -0.247715 
4   -0.089449 
5   -0.556483 
6   -0.101209 
7   -0.121532 
8   0.268631 
9   0.169591 
10   0.169634 
11   0.129691 
12   0.144991 
13   0.192329 
14   0.254554 
15   0.261195 
 
$$$$ 
 
