PCCDB-ID:  6997 
public computational chemistry database (PCCDB) project, http://pccdb.org 
 
 19 19  0  0  0  0  0  0  0  0999 V2000 
    3.5690   -0.1308    0.9679 C   0  0  0  0  0  0  0  0  0  0  0  0 
    2.4118    0.0547   -0.0303 C   0  0  0  0  0  0  0  0  0  0  0  0 
    3.4247    1.3038   -3.5144 C   0  0  0  0  0  0  0  0  0  0  0  0 
    3.4356    2.6841   -3.3230 C   0  0  0  0  0  0  0  0  0  0  0  0 
    3.0870    0.4666   -2.4480 C   0  0  0  0  0  0  0  0  0  0  0  0 
    3.1097    3.2155   -2.0744 C   0  0  0  0  0  0  0  0  0  0  0  0 
    2.7581    0.9683   -1.1856 C   0  0  0  0  0  0  0  0  0  0  0  0 
    2.7767    2.3654   -1.0171 C   0  0  0  0  0  0  0  0  0  0  0  0 
    2.4480    2.8490    0.2258 O   0  0  0  0  0  0  0  0  0  0  0  0 
    3.2764   -0.8068    1.7800 H   0  0  0  0  0  0  0  0  0  0  0  0 
    3.8563    0.8278    1.4107 H   0  0  0  0  0  0  0  0  0  0  0  0 
    4.4503   -0.5548    0.4733 H   0  0  0  0  0  0  0  0  0  0  0  0 
    1.5430    0.4565    0.5046 H   0  0  0  0  0  0  0  0  0  0  0  0 
    2.1153   -0.9229   -0.4299 H   0  0  0  0  0  0  0  0  0  0  0  0 
    3.6746    0.8804   -4.4829 H   0  0  0  0  0  0  0  0  0  0  0  0 
    3.6939    3.3528   -4.1397 H   0  0  0  0  0  0  0  0  0  0  0  0 
    3.0729   -0.6113   -2.5955 H   0  0  0  0  0  0  0  0  0  0  0  0 
    3.1129    4.2934   -1.9180 H   0  0  0  0  0  0  0  0  0  0  0  0 
    2.4876    3.8176    0.2034 H   0  0  0  0  0  0  0  0  0  0  0  0 
  1 11  1  0  0  0  0 
  1 10  1  0  0  0  0 
  2 13  1  0  0  0  0 
  2  1  1  0  0  0  0 
  3  4  2  0  0  0  0 
  3  5  1  0  0  0  0 
  4  6  1  0  0  0  0 
  5  7  2  0  0  0  0 
  6 18  1  0  0  0  0 
  6  8  2  0  0  0  0 
  7  8  1  0  0  0  0 
  7  2  1  0  0  0  0 
  8  9  1  0  0  0  0 
 12  1  1  0  0  0  0 
 14  2  1  0  0  0  0 
 15  3  1  0  0  0  0 
 16  4  1  0  0  0  0 
 17  5  1  0  0  0  0 
 19  9  1  0  0  0  0 
M  END 
>  <HBA> 
1 
 
>  <HBD> 
1 
 
>  <TPSA> 
20.23 
 
>  <cid> 
6997 
 
>  <dipole> 
1.23 
 
>  <excitation_energy_1> 
5.016 
 
>  <excitation_energy_2> 
5.126 
 
>  <excitation_energy_3> 
5.705 
 
>  <excitation_energy_4> 
5.739 
 
>  <homo_energy> 
-5.837 
 
>  <homo_lumo_gap> 
5.965 
 
>  <logP> 
1.955 
 
>  <lumo_energy> 
0.128 
 
>  <melting_point> 
47.46 
 
>  <molecular_refractivity> 
38.24 
 
>  <oscillator_strength_1> 
0.0449 
 
>  <oscillator_strength_2> 
0.0016 
 
>  <oscillator_strength_3> 
0.0217 
 
>  <oscillator_strength_4> 
0.0059 
 
>  <open_babel_can_smiles> 
CCc1ccccc1O 
 
>  <mulliken_charges> 
19 
1   -0.43919 
2   -0.326233 
3   -0.12899 
4   -0.138686 
5   -0.197848 
6   -0.187558 
7   0.14277 
8   0.292413 
9   -0.646766 
10   0.139289 
11   0.162131 
12   0.143113 
13   0.155988 
14   0.135458 
15   0.12365 
16   0.127501 
17   0.12228 
18   0.113868 
19   0.406812 
 
>  <lowdin_charges> 
19 
1   -0.443282 
2   -0.268579 
3   -0.178609 
4   -0.152802 
5   -0.154918 
6   -0.211881 
7   -0.028918 
8   0.094327 
9   -0.382044 
10   0.148258 
11   0.156122 
12   0.147845 
13   0.157236 
14   0.145901 
15   0.156113 
16   0.158307 
17   0.152985 
18   0.14912 
19   0.354818 
 
$$$$ 
 
