PCCDB-ID:  62144 
public computational chemistry database (PCCDB) project, http://pccdb.org 
 
 15 15  0  0  0  0  0  0  0  0999 V2000 
   -1.6314    0.1127    0.0697 C   0  0  0  0  0  0  0  0  0  0  0  0 
   -0.7657   -0.9851    0.3829 C   0  0  0  0  0  0  0  0  0  0  0  0 
   -0.8311    1.0878   -0.4410 C   0  0  0  0  0  0  0  0  0  0  0  0 
    1.8205   -1.2571    0.1184 C   0  0  0  0  0  0  0  0  0  0  0  0 
    3.9358   -2.5712   -1.0771 C   0  0  0  0  0  0  0  0  0  0  0  0 
    0.4982   -0.5947    0.0439 C   0  0  0  0  0  0  0  0  0  0  0  0 
    4.4049   -2.5488    0.0373 O   0  0  0  0  0  0  0  0  0  0  0  0 
    0.4679    0.6771   -0.4652 O   0  0  0  0  0  0  0  0  0  0  0  0 
    2.3548   -1.9024   -1.5456 S   0  0  0  0  0  0  0  0  0  0  0  0 
   -2.7021    0.1640    0.2090 H   0  0  0  0  0  0  0  0  0  0  0  0 
   -1.0454   -1.9397    0.8069 H   0  0  0  0  0  0  0  0  0  0  0  0 
   -1.0123    2.0852   -0.8114 H   0  0  0  0  0  0  0  0  0  0  0  0 
    1.7870   -2.1063    0.8028 H   0  0  0  0  0  0  0  0  0  0  0  0 
    2.6007   -0.5724    0.4589 H   0  0  0  0  0  0  0  0  0  0  0  0 
    4.4506   -3.0217   -1.9473 H   0  0  0  0  0  0  0  0  0  0  0  0 
  1 10  1  0  0  0  0 
  1  2  1  0  0  0  0 
  2 11  1  0  0  0  0 
  3  1  2  0  0  0  0 
  4 14  1  0  0  0  0 
  4 13  1  0  0  0  0 
  5  7  2  0  0  0  0 
  6  4  1  0  0  0  0 
  6  2  2  0  0  0  0 
  8  3  1  0  0  0  0 
  8  6  1  0  0  0  0 
  9  5  1  0  0  0  0 
  9  4  1  0  0  0  0 
 12  3  1  0  0  0  0 
 15  5  1  0  0  0  0 
M  END 
>  <HBA> 
3 
 
>  <HBD> 
0 
 
>  <TPSA> 
55.51 
 
>  <cid> 
62144 
 
>  <dipole> 
1.94 
 
>  <excitation_energy_1> 
4.507 
 
>  <excitation_energy_2> 
4.938 
 
>  <excitation_energy_3> 
5.197 
 
>  <excitation_energy_4> 
5.554 
 
>  <homo_energy> 
-6.226 
 
>  <homo_lumo_gap> 
5.521 
 
>  <logP> 
2.305 
 
>  <lumo_energy> 
-0.705 
 
>  <melting_point> 
46.41 
 
>  <molecular_refractivity> 
36.66 
 
>  <oscillator_strength_1> 
0.0002 
 
>  <oscillator_strength_2> 
0.0001 
 
>  <oscillator_strength_3> 
0.1164 
 
>  <oscillator_strength_4> 
0.0036 
 
>  <open_babel_can_smiles> 
O=CSCc1ccco1 
 
>  <mulliken_charges> 
15 
1   -0.179242 
2   -0.191821 
3   0.086885 
4   -0.504376 
5   0.073589 
6   0.337054 
7   -0.380762 
8   -0.42476 
9   0.150559 
10   0.145864 
11   0.145811 
12   0.159195 
13   0.210548 
14   0.217524 
15   0.153934 
 
>  <lowdin_charges> 
15 
1   -0.200681 
2   -0.203033 
3   -0.072831 
4   -0.358283 
5   -0.082081 
6   0.052097 
7   -0.232912 
8   -0.098589 
9   0.156615 
10   0.169919 
11   0.171275 
12   0.172462 
13   0.187076 
14   0.189181 
15   0.149785 
 
$$$$ 
 
