PCCDB-ID:  16265 
public computational chemistry database (PCCDB) project, http://pccdb.org 
 
 22 22  0  0  0  0  0  0  0  0999 V2000 
    2.5126    0.5125    0.9700 C   0  0  0  0  0  0  0  0  0  0  0  0 
    4.6296    0.9676   -3.9535 C   0  0  0  0  0  0  0  0  0  0  0  0 
    2.1061   -3.2981   -0.8172 C   0  0  0  0  0  0  0  0  0  0  0  0 
    2.1659   -0.5086    0.1757 C   0  0  0  0  0  0  0  0  0  0  0  0 
    3.9314   -1.4467   -3.6091 C   0  0  0  0  0  0  0  0  0  0  0  0 
    3.3269   -2.4468   -2.8495 C   0  0  0  0  0  0  0  0  0  0  0  0 
    3.3717    0.1494   -1.9146 C   0  0  0  0  0  0  0  0  0  0  0  0 
    3.9651   -0.1256   -3.1486 C   0  0  0  0  0  0  0  0  0  0  0  0 
    2.7383   -2.1760   -1.6104 C   0  0  0  0  0  0  0  0  0  0  0  0 
    2.7695   -0.8459   -1.1277 C   0  0  0  0  0  0  0  0  0  0  0  0 
    1.9964    0.6935    1.9083 H   0  0  0  0  0  0  0  0  0  0  0  0 
    3.3235    1.1933    0.7244 H   0  0  0  0  0  0  0  0  0  0  0  0 
    4.5948    0.7525   -5.0270 H   0  0  0  0  0  0  0  0  0  0  0  0 
    5.6873    1.0792   -3.6790 H   0  0  0  0  0  0  0  0  0  0  0  0 
    4.1483    1.9375   -3.7875 H   0  0  0  0  0  0  0  0  0  0  0  0 
    2.2229   -4.2532   -1.3385 H   0  0  0  0  0  0  0  0  0  0  0  0 
    1.0307   -3.1393   -0.6622 H   0  0  0  0  0  0  0  0  0  0  0  0 
    2.5597   -3.4030    0.1757 H   0  0  0  0  0  0  0  0  0  0  0  0 
    1.3700   -1.1683    0.5173 H   0  0  0  0  0  0  0  0  0  0  0  0 
    4.3720   -1.6946   -4.5723 H   0  0  0  0  0  0  0  0  0  0  0  0 
    3.3102   -3.4663   -3.2284 H   0  0  0  0  0  0  0  0  0  0  0  0 
    3.3527    1.1766   -1.5583 H   0  0  0  0  0  0  0  0  0  0  0  0 
  1 11  1  0  0  0  0 
  2 15  1  0  0  0  0 
  2 14  1  0  0  0  0 
  2  8  1  0  0  0  0 
  3 17  1  0  0  0  0 
  3 18  1  0  0  0  0 
  4 19  1  0  0  0  0 
  4  1  2  0  0  0  0 
  5  8  2  0  0  0  0 
  5  6  1  0  0  0  0 
  6  9  2  0  0  0  0 
  7 22  1  0  0  0  0 
  7 10  2  0  0  0  0 
  8  7  1  0  0  0  0 
  9 10  1  0  0  0  0 
  9  3  1  0  0  0  0 
 10  4  1  0  0  0  0 
 12  1  1  0  0  0  0 
 13  2  1  0  0  0  0 
 16  3  1  0  0  0  0 
 20  5  1  0  0  0  0 
 21  6  1  0  0  0  0 
M  END 
>  <HBA> 
0 
 
>  <HBD> 
0 
 
>  <TPSA> 
0.0 
 
>  <cid> 
16265 
 
>  <dipole> 
0.15 
 
>  <excitation_energy_1> 
4.566 
 
>  <excitation_energy_2> 
4.878 
 
>  <excitation_energy_3> 
5.572 
 
>  <excitation_energy_4> 
5.643 
 
>  <homo_energy> 
-5.897 
 
>  <homo_lumo_gap> 
5.214 
 
>  <logP> 
2.946 
 
>  <lumo_energy> 
-0.683 
 
>  <melting_point> 
6.13 
 
>  <molecular_refractivity> 
46.47 
 
>  <oscillator_strength_1> 
0.0751 
 
>  <oscillator_strength_2> 
0.2582 
 
>  <oscillator_strength_3> 
0.1461 
 
>  <oscillator_strength_4> 
0.03 
 
>  <open_babel_can_smiles> 
C=Cc1cc(C)ccc1C 
 
>  <mulliken_charges> 
22 
1   -0.339638 
2   -0.530314 
3   -0.536794 
4   -0.12766 
5   -0.176915 
6   -0.186934 
7   -0.245942 
8   0.182979 
9   0.122184 
10   0.111647 
11   0.14092 
12   0.142214 
13   0.155148 
14   0.164077 
15   0.156688 
16   0.154527 
17   0.160553 
18   0.164955 
19   0.129182 
20   0.119138 
21   0.119978 
22   0.120008 
 
>  <lowdin_charges> 
22 
1   -0.332349 
2   -0.438667 
3   -0.441771 
4   -0.149369 
5   -0.166196 
6   -0.16562 
7   -0.164152 
8   -0.002773 
9   -0.007393 
10   -0.012084 
11   0.160499 
12   0.157718 
13   0.155305 
14   0.159387 
15   0.1574 
16   0.156814 
17   0.156096 
18   0.160542 
19   0.157347 
20   0.15324 
21   0.152338 
22   0.153689 
 
$$$$ 
 
