PCCDB-ID:  6609 
public computational chemistry database (PCCDB) project, http://pccdb.org 
 
 37 37  0  0  1  0  0  0  0  0999 V2000 
    0.9982   -0.2501   -0.2189 C   0  0  0  0  0  0  0  0  0  0  0  0 
    6.8593    0.4238   -0.6423 C   0  0  0  0  0  0  0  0  0  0  0  0 
    3.2872   -1.3438    4.6552 C   0  0  0  0  0  0  0  0  0  0  0  0 
    4.7100   -1.4937   -1.9913 C   0  0  0  0  0  0  0  0  0  0  0  0 
    5.6783   -2.2674    0.1776 C   0  0  0  0  0  0  0  0  0  0  0  0 
    3.0399    1.0959   -0.7161 C   0  0  0  0  0  0  0  0  0  0  0  0 
    4.5172    1.3362   -0.8571 C   0  0  0  0  0  0  0  0  0  0  0  0 
    2.7436   -2.3376    2.3179 C   0  0  0  0  0  0  0  0  0  0  0  0 
    3.3249   -1.3444    1.6264 C   0  0  0  0  0  0  0  0  0  0  0  0 
    2.4907   -0.0536   -0.3034 C   0  0  0  0  0  0  0  0  0  0  0  0 
    5.3934    0.2410   -0.2201 C   0  0  1  0  0  0  0  0  0  0  0  0 
    2.6773   -2.4430    3.7964 C   0  0  0  0  0  0  0  0  0  0  0  0 
    3.3556   -1.2421    0.1184 C   0  0  1  0  0  0  0  0  0  0  0  0 
    4.8064   -1.1809   -0.4820 C   0  0  0  0  0  0  0  0  0  0  0  0 
    2.1373   -3.4133    4.3098 O   0  0  0  0  0  0  0  0  0  0  0  0 
    0.4575    0.6626   -0.4892 H   0  0  0  0  0  0  0  0  0  0  0  0 
    0.6875   -0.5460    0.7913 H   0  0  0  0  0  0  0  0  0  0  0  0 
    0.6679   -1.0519   -0.8943 H   0  0  0  0  0  0  0  0  0  0  0  0 
    7.1884    1.4455   -0.4175 H   0  0  0  0  0  0  0  0  0  0  0  0 
    6.9982    0.2686   -1.7186 H   0  0  0  0  0  0  0  0  0  0  0  0 
    7.5308   -0.2598   -0.1137 H   0  0  0  0  0  0  0  0  0  0  0  0 
    2.8442   -0.3678    4.4253 H   0  0  0  0  0  0  0  0  0  0  0  0 
    4.3667   -1.2627    4.4792 H   0  0  0  0  0  0  0  0  0  0  0  0 
    3.1119   -1.5835    5.7055 H   0  0  0  0  0  0  0  0  0  0  0  0 
    5.6921   -1.4355   -2.4728 H   0  0  0  0  0  0  0  0  0  0  0  0 
    4.0324   -0.8119   -2.5137 H   0  0  0  0  0  0  0  0  0  0  0  0 
    4.3349   -2.5133   -2.1414 H   0  0  0  0  0  0  0  0  0  0  0  0 
    6.6329   -2.3818   -0.3463 H   0  0  0  0  0  0  0  0  0  0  0  0 
    5.1708   -3.2393    0.1505 H   0  0  0  0  0  0  0  0  0  0  0  0 
    5.8956   -2.0410    1.2277 H   0  0  0  0  0  0  0  0  0  0  0  0 
    2.3842    1.9156   -1.0117 H   0  0  0  0  0  0  0  0  0  0  0  0 
    4.7795    2.3094   -0.4172 H   0  0  0  0  0  0  0  0  0  0  0  0 
    4.7632    1.4334   -1.9274 H   0  0  0  0  0  0  0  0  0  0  0  0 
    2.2694   -3.1703    1.8003 H   0  0  0  0  0  0  0  0  0  0  0  0 
    3.7841   -0.5171    2.1663 H   0  0  0  0  0  0  0  0  0  0  0  0 
    5.3590    0.3938    0.8690 H   0  0  0  0  0  0  0  0  0  0  0  0 
    2.8856   -2.1566   -0.2733 H   0  0  0  0  0  0  0  0  0  0  0  0 
  1 17  1  0  0  0  0 
  2 19  1  0  0  0  0 
  2 11  1  0  0  0  0 
  2 21  1  0  0  0  0 
  3 24  1  0  0  0  0 
  4 14  1  0  0  0  0 
  5 30  1  0  0  0  0 
  6 10  2  0  0  0  0 
  7  6  1  0  0  0  0 
  7 32  1  0  0  0  0 
  7 11  1  0  0  0  0 
  8 12  1  0  0  0  0 
  9 35  1  0  0  0  0 
  9  8  2  0  0  0  0 
 10  1  1  0  0  0  0 
 10 13  1  0  0  0  0 
 11 36  1  1  0  0  0 
 12 15  2  0  0  0  0 
 12  3  1  0  0  0  0 
 13 37  1  6  0  0  0 
 13  9  1  0  0  0  0 
 14 11  1  0  0  0  0 
 14 13  1  0  0  0  0 
 14  5  1  0  0  0  0 
 16  1  1  0  0  0  0 
 18  1  1  0  0  0  0 
 20  2  1  0  0  0  0 
 22  3  1  0  0  0  0 
 23  3  1  0  0  0  0 
 25  4  1  0  0  0  0 
 26  4  1  0  0  0  0 
 27  4  1  0  0  0  0 
 28  5  1  0  0  0  0 
 29  5  1  0  0  0  0 
 31  6  1  0  0  0  0 
 33  7  1  0  0  0  0 
 34  8  1  0  0  0  0 
M  END 
>  <HBA> 
1 
 
>  <HBD> 
0 
 
>  <TPSA> 
17.07 
 
>  <cid> 
6609 
 
>  <dipole> 
3.86 
 
>  <excitation_energy_1> 
3.668 
 
>  <excitation_energy_2> 
4.393 
 
>  <excitation_energy_3> 
5.471 
 
>  <excitation_energy_4> 
5.829 
 
>  <homo_energy> 
-6.406 
 
>  <homo_lumo_gap> 
5.059 
 
>  <logP> 
3.76 
 
>  <lumo_energy> 
-1.347 
 
>  <melting_point> 
53.78 
 
>  <molecular_refractivity> 
66.29 
 
>  <oscillator_strength_1> 
0.0012 
 
>  <oscillator_strength_2> 
0.0453 
 
>  <oscillator_strength_3> 
0.4444 
 
>  <oscillator_strength_4> 
0.0037 
 
>  <open_babel_can_smiles> 
CC(=O)/C=C/[C@H]1C(=CC[C@@H](C1(C)C)C)C 
 
>  <mulliken_charges> 
37 
1   -0.514294 
2   -0.461903 
3   -0.541302 
4   -0.464613 
5   -0.460492 
6   -0.173832 
7   -0.306715 
8   -0.185456 
9   -0.077985 
10   0.172566 
11   -0.0831 
12   0.447035 
13   -0.203596 
14   0.09099 
15   -0.461691 
16   0.152915 
17   0.160248 
18   0.15279 
19   0.142516 
20   0.145137 
21   0.148643 
22   0.166429 
23   0.166017 
24   0.179507 
25   0.144775 
26   0.154382 
27   0.140956 
28   0.146207 
29   0.144572 
30   0.140817 
31   0.117306 
32   0.140882 
33   0.145192 
34   0.140398 
35   0.142451 
36   0.121185 
37   0.131065 
 
>  <lowdin_charges> 
37 
1   -0.441838 
2   -0.446364 
3   -0.47471 
4   -0.448894 
5   -0.442384 
6   -0.18908 
7   -0.27501 
8   -0.209281 
9   -0.115473 
10   -0.01699 
11   -0.123245 
12   0.156799 
13   -0.125389 
14   0.012431 
15   -0.245263 
16   0.15655 
17   0.158576 
18   0.155775 
19   0.149937 
20   0.146187 
21   0.153232 
22   0.166863 
23   0.165752 
24   0.172745 
25   0.149504 
26   0.157069 
27   0.148619 
28   0.150647 
29   0.151114 
30   0.147247 
31   0.15103 
32   0.150363 
33   0.147012 
34   0.165335 
35   0.158062 
36   0.133878 
37   0.149194 
 
$$$$ 
 
