PCCDB-ID:  7296 
public computational chemistry database (PCCDB) project, http://pccdb.org 
 
 18 18  0  0  0  0  0  0  0  0999 V2000 
    1.0595   -0.0294    0.0048 C   0  0  0  0  0  0  0  0  0  0  0  0 
    3.0906   -1.4643   -1.9560 C   0  0  0  0  0  0  0  0  0  0  0  0 
    3.4601   -0.0259   -2.3930 C   0  0  0  0  0  0  0  0  0  0  0  0 
    3.1642   -1.4240   -0.4199 C   0  0  0  0  0  0  0  0  0  0  0  0 
    3.1524    0.8881   -1.1673 C   0  0  0  0  0  0  0  0  0  0  0  0 
    2.5946   -0.0364   -0.0489 C   0  0  0  0  0  0  0  0  0  0  0  0 
    0.6866   -0.7123    0.7780 H   0  0  0  0  0  0  0  0  0  0  0  0 
    0.6172   -0.3368   -0.9508 H   0  0  0  0  0  0  0  0  0  0  0  0 
    0.6801    0.9739    0.2330 H   0  0  0  0  0  0  0  0  0  0  0  0 
    3.7496   -2.2218   -2.3943 H   0  0  0  0  0  0  0  0  0  0  0  0 
    2.0701   -1.7101   -2.2748 H   0  0  0  0  0  0  0  0  0  0  0  0 
    2.9083    0.2801   -3.2881 H   0  0  0  0  0  0  0  0  0  0  0  0 
    4.5245    0.0320   -2.6487 H   0  0  0  0  0  0  0  0  0  0  0  0 
    4.2126   -1.4897   -0.0979 H   0  0  0  0  0  0  0  0  0  0  0  0 
    2.6251   -2.2494    0.0606 H   0  0  0  0  0  0  0  0  0  0  0  0 
    2.4446    1.6878   -1.4149 H   0  0  0  0  0  0  0  0  0  0  0  0 
    4.0703    1.3807   -0.8260 H   0  0  0  0  0  0  0  0  0  0  0  0 
    2.9673    0.2822    0.9329 H   0  0  0  0  0  0  0  0  0  0  0  0 
  1  9  1  0  0  0  0 
  1  7  1  0  0  0  0 
  2  4  1  0  0  0  0 
  3  2  1  0  0  0  0 
  3  5  1  0  0  0  0 
  4 14  1  0  0  0  0 
  4  6  1  0  0  0  0 
  4 15  1  0  0  0  0 
  5 17  1  0  0  0  0 
  5  6  1  0  0  0  0 
  6  1  1  0  0  0  0 
  6 18  1  0  0  0  0 
  8  1  1  0  0  0  0 
 10  2  1  0  0  0  0 
 11  2  1  0  0  0  0 
 12  3  1  0  0  0  0 
 13  3  1  0  0  0  0 
 16  5  1  0  0  0  0 
M  END 
>  <HBA> 
0 
 
>  <HBD> 
0 
 
>  <TPSA> 
0.0 
 
>  <cid> 
7296 
 
>  <dipole> 
0.07 
 
>  <excitation_energy_1> 
7.71 
 
>  <excitation_energy_2> 
7.855 
 
>  <excitation_energy_3> 
7.927 
 
>  <excitation_energy_4> 
8.074 
 
>  <homo_energy> 
-8.275 
 
>  <homo_lumo_gap> 
10.452 
 
>  <logP> 
2.196 
 
>  <lumo_energy> 
2.177 
 
>  <melting_point> 
-3.98 
 
>  <molecular_refractivity> 
28.84 
 
>  <oscillator_strength_1> 
0.0135 
 
>  <oscillator_strength_2> 
0.0239 
 
>  <oscillator_strength_3> 
0.0116 
 
>  <oscillator_strength_4> 
0.0102 
 
>  <open_babel_can_smiles> 
CC1CCCC1 
 
>  <mulliken_charges> 
18 
1   -0.449512 
2   -0.270328 
3   -0.269427 
4   -0.265145 
5   -0.273581 
6   -0.073874 
7   0.139044 
8   0.1419 
9   0.140407 
10   0.132305 
11   0.13555 
12   0.134358 
13   0.13513 
14   0.1287 
15   0.12927 
16   0.132755 
17   0.133234 
18   0.119213 
 
>  <lowdin_charges> 
18 
1   -0.447812 
2   -0.285011 
3   -0.285674 
4   -0.28277 
5   -0.28837 
6   -0.127839 
7   0.147532 
8   0.145495 
9   0.146938 
10   0.145475 
11   0.139089 
12   0.144632 
13   0.141448 
14   0.138527 
15   0.143107 
16   0.144261 
17   0.14391 
18   0.137063 
 
$$$$ 
 
