PCCDB-ID:  53394 
public computational chemistry database (PCCDB) project, http://pccdb.org 
 
 38 37  0  0  0  0  0  0  0  0999 V2000 
    4.4613   -0.4876   -0.8883 C   0  0  0  0  0  0  0  0  0  0  0  0 
    6.9774    9.4553    2.8705 C   0  0  0  0  0  0  0  0  0  0  0  0 
    5.2255    0.8416   -0.8598 C   0  0  0  0  0  0  0  0  0  0  0  0 
    6.2992    0.9390    0.2380 C   0  0  0  0  0  0  0  0  0  0  0  0 
    5.7450    0.9563    1.6707 C   0  0  0  0  0  0  0  0  0  0  0  0 
    6.8222    1.0150    2.7699 C   0  0  0  0  0  0  0  0  0  0  0  0 
    7.7012    2.2778    2.7954 C   0  0  0  0  0  0  0  0  0  0  0  0 
    6.9473    3.5783    3.1071 C   0  0  0  0  0  0  0  0  0  0  0  0 
    7.8752    4.7961    3.2119 C   0  0  0  0  0  0  0  0  0  0  0  0 
    7.1330    6.1013    3.5243 C   0  0  0  0  0  0  0  0  0  0  0  0 
    8.0897    7.2976    3.6362 C   0  0  0  0  0  0  0  0  0  0  0  0 
    7.1136    8.9322    5.1779 N   0  0  0  0  0  0  0  0  0  0  0  0 
    7.4054    8.5571    3.9246 N   0  0  0  0  0  0  0  0  0  0  0  0 
    7.4563    8.1371    6.0511 O   0  0  0  0  0  0  0  0  0  0  0  0 
    3.7557   -0.5172   -1.7265 H   0  0  0  0  0  0  0  0  0  0  0  0 
    3.8859   -0.6498    0.0298 H   0  0  0  0  0  0  0  0  0  0  0  0 
    5.1489   -1.3351   -1.0029 H   0  0  0  0  0  0  0  0  0  0  0  0 
    6.2677    8.9623    2.1949 H   0  0  0  0  0  0  0  0  0  0  0  0 
    7.8350    9.8061    2.2833 H   0  0  0  0  0  0  0  0  0  0  0  0 
    6.4890   10.3087    3.3452 H   0  0  0  0  0  0  0  0  0  0  0  0 
    4.5119    1.6700   -0.7419 H   0  0  0  0  0  0  0  0  0  0  0  0 
    5.7072    0.9940   -1.8351 H   0  0  0  0  0  0  0  0  0  0  0  0 
    6.8895    1.8486    0.0640 H   0  0  0  0  0  0  0  0  0  0  0  0 
    7.0005    0.0971    0.1326 H   0  0  0  0  0  0  0  0  0  0  0  0 
    5.1429    0.0538    1.8386 H   0  0  0  0  0  0  0  0  0  0  0  0 
    5.0513    1.8024    1.7787 H   0  0  0  0  0  0  0  0  0  0  0  0 
    7.4760    0.1371    2.6666 H   0  0  0  0  0  0  0  0  0  0  0  0 
    6.3308    0.9109    3.7478 H   0  0  0  0  0  0  0  0  0  0  0  0 
    8.2314    2.3863    1.8391 H   0  0  0  0  0  0  0  0  0  0  0  0 
    8.4834    2.1361    3.5547 H   0  0  0  0  0  0  0  0  0  0  0  0 
    6.3962    3.4609    4.0518 H   0  0  0  0  0  0  0  0  0  0  0  0 
    6.1899    3.7699    2.3341 H   0  0  0  0  0  0  0  0  0  0  0  0 
    8.4343    4.9081    2.2705 H   0  0  0  0  0  0  0  0  0  0  0  0 
    8.6271    4.6124    3.9930 H   0  0  0  0  0  0  0  0  0  0  0  0 
    6.5887    6.0067    4.4709 H   0  0  0  0  0  0  0  0  0  0  0  0 
    6.3858    6.3000    2.7432 H   0  0  0  0  0  0  0  0  0  0  0  0 
    8.6510    7.4374    2.7054 H   0  0  0  0  0  0  0  0  0  0  0  0 
    8.7997    7.1319    4.4519 H   0  0  0  0  0  0  0  0  0  0  0  0 
  1  3  1  0  0  0  0 
  1 16  1  0  0  0  0 
  2 20  1  0  0  0  0 
  2 13  1  0  0  0  0 
  3 21  1  0  0  0  0 
  3  4  1  0  0  0  0 
  4  5  1  0  0  0  0 
  5 26  1  0  0  0  0 
  5 25  1  0  0  0  0 
  5  6  1  0  0  0  0 
  6  7  1  0  0  0  0 
  6 28  1  0  0  0  0 
  7  8  1  0  0  0  0 
  7 30  1  0  0  0  0 
  8  9  1  0  0  0  0 
  8 31  1  0  0  0  0 
  9 10  1  0  0  0  0 
  9 34  1  0  0  0  0 
 10 11  1  0  0  0  0 
 10 35  1  0  0  0  0 
 11 13  1  0  0  0  0 
 11 38  1  0  0  0  0 
 12 14  1  0  0  0  0 
 13 12  1  0  0  0  0 
 15  1  1  0  0  0  0 
 17  1  1  0  0  0  0 
 18  2  1  0  0  0  0 
 19  2  1  0  0  0  0 
 22  3  1  0  0  0  0 
 23  4  1  0  0  0  0 
 24  4  1  0  0  0  0 
 27  6  1  0  0  0  0 
 29  7  1  0  0  0  0 
 32  8  1  0  0  0  0 
 33  9  1  0  0  0  0 
 36 10  1  0  0  0  0 
 37 11  1  0  0  0  0 
M  RAD  2  12   2  14   2 
M  END 
>  <HBA> 
3 
 
>  <HBD> 
0 
 
>  <TPSA> 
32.67 
 
>  <cid> 
53394 
 
>  <dipole> 
3.99 
 
>  <excitation_energy_1> 
3.408 
 
>  <excitation_energy_2> 
5.615 
 
>  <excitation_energy_3> 
5.8 
 
>  <excitation_energy_4> 
6.046 
 
>  <homo_energy> 
-5.957 
 
>  <homo_lumo_gap> 
5.265 
 
>  <logP> 
3.74 
 
>  <lumo_energy> 
-0.691 
 
>  <melting_point> 
-8.2 
 
>  <molecular_refractivity> 
62.63 
 
>  <oscillator_strength_1> 
0.0011 
 
>  <oscillator_strength_2> 
0.0112 
 
>  <oscillator_strength_3> 
0.1575 
 
>  <oscillator_strength_4> 
0.0005 
 
>  <open_babel_can_smiles> 
CCCCCCCCCCN([N][O])C 
 
>  <mulliken_charges> 
38 
1   -0.443094 
2   -0.311506 
3   -0.248593 
4   -0.250029 
5   -0.257972 
6   -0.258664 
7   -0.257686 
8   -0.254817 
9   -0.258679 
10   -0.260594 
11   -0.148846 
12   0.14515 
13   -0.206038 
14   -0.386413 
15   0.141869 
16   0.146623 
17   0.140763 
18   0.165514 
19   0.163967 
20   0.191208 
21   0.128126 
22   0.129599 
23   0.129071 
24   0.125458 
25   0.133242 
26   0.129643 
27   0.12769 
28   0.127996 
29   0.131349 
30   0.129478 
31   0.133494 
32   0.131926 
33   0.126478 
34   0.138404 
35   0.165821 
36   0.131168 
37   0.146271 
38   0.18262 
 
>  <lowdin_charges> 
38 
1   -0.448522 
2   -0.358459 
3   -0.273007 
4   -0.278839 
5   -0.281299 
6   -0.27591 
7   -0.278656 
8   -0.276271 
9   -0.274032 
10   -0.281218 
11   -0.216872 
12   0.049595 
13   -0.039582 
14   -0.280686 
15   0.150115 
16   0.14745 
17   0.146371 
18   0.156466 
19   0.156083 
20   0.177556 
21   0.138477 
22   0.140719 
23   0.139777 
24   0.137316 
25   0.143199 
26   0.137954 
27   0.141071 
28   0.140333 
29   0.138178 
30   0.142292 
31   0.140943 
32   0.139503 
33   0.13687 
34   0.143683 
35   0.15774 
36   0.140379 
37   0.151045 
38   0.170236 
 
$$$$ 
 
