PCCDB-ID:  16638 
public computational chemistry database (PCCDB) project, http://pccdb.org 
 
 21 20  0  0  0  0  0  0  0  0999 V2000 
    1.7591   -1.9178    4.1484 C   0  0  0  0  0  0  0  0  0  0  0  0 
    5.4409   -2.5702   -1.0715 C   0  0  0  0  0  0  0  0  0  0  0  0 
    7.5314   -2.3815    0.3091 C   0  0  0  0  0  0  0  0  0  0  0  0 
    2.7025   -2.3819    3.0331 C   0  0  0  0  0  0  0  0  0  0  0  0 
    3.1229   -1.2253    2.1315 C   0  0  0  0  0  0  0  0  0  0  0  0 
    6.0467   -2.2672    0.0835 C   0  0  0  0  0  0  0  0  0  0  0  0 
    5.2694   -1.7849    1.2667 C   0  0  0  0  0  0  0  0  0  0  0  0 
    5.7870   -1.5138    2.3344 O   0  0  0  0  0  0  0  0  0  0  0  0 
    3.9411   -1.6774    1.0296 O   0  0  0  0  0  0  0  0  0  0  0  0 
    1.4655   -2.7581    4.7862 H   0  0  0  0  0  0  0  0  0  0  0  0 
    0.8423   -1.4742    3.7408 H   0  0  0  0  0  0  0  0  0  0  0  0 
    2.2380   -1.1670    4.7880 H   0  0  0  0  0  0  0  0  0  0  0  0 
    6.0108   -2.9222   -1.9275 H   0  0  0  0  0  0  0  0  0  0  0  0 
    4.3679   -2.4756   -1.1934 H   0  0  0  0  0  0  0  0  0  0  0  0 
    8.0394   -2.7184   -0.5990 H   0  0  0  0  0  0  0  0  0  0  0  0 
    7.7510   -3.0868    1.1186 H   0  0  0  0  0  0  0  0  0  0  0  0 
    7.9560   -1.4191    0.6157 H   0  0  0  0  0  0  0  0  0  0  0  0 
    2.2160   -3.1504    2.4195 H   0  0  0  0  0  0  0  0  0  0  0  0 
    3.6023   -2.8326    3.4664 H   0  0  0  0  0  0  0  0  0  0  0  0 
    3.6738   -0.4683    2.6963 H   0  0  0  0  0  0  0  0  0  0  0  0 
    2.2547   -0.7609    1.6546 H   0  0  0  0  0  0  0  0  0  0  0  0 
  1 10  1  0  0  0  0 
  1 12  1  0  0  0  0 
  2  6  2  0  0  0  0 
  3 17  1  0  0  0  0 
  3 16  1  0  0  0  0 
  4 19  1  0  0  0  0 
  4  1  1  0  0  0  0 
  5 20  1  0  0  0  0 
  5  4  1  0  0  0  0 
  6  3  1  0  0  0  0 
  6  7  1  0  0  0  0 
  7  8  2  0  0  0  0 
  9  7  1  0  0  0  0 
  9  5  1  0  0  0  0 
 11  1  1  0  0  0  0 
 13  2  1  0  0  0  0 
 14  2  1  0  0  0  0 
 15  3  1  0  0  0  0 
 18  4  1  0  0  0  0 
 21  5  1  0  0  0  0 
M  END 
>  <HBA> 
2 
 
>  <HBD> 
0 
 
>  <TPSA> 
26.3 
 
>  <cid> 
16638 
 
>  <dipole> 
1.63 
 
>  <excitation_energy_1> 
4.801 
 
>  <excitation_energy_2> 
5.785 
 
>  <excitation_energy_3> 
6.333 
 
>  <excitation_energy_4> 
6.866 
 
>  <homo_energy> 
-7.241 
 
>  <homo_lumo_gap> 
6.231 
 
>  <logP> 
1.516 
 
>  <lumo_energy> 
-1.01 
 
>  <melting_point> 
-31.96 
 
>  <molecular_refractivity> 
36.57 
 
>  <oscillator_strength_1> 
0.0001 
 
>  <oscillator_strength_2> 
0.1978 
 
>  <oscillator_strength_3> 
0.1542 
 
>  <oscillator_strength_4> 
0.0095 
 
>  <open_babel_can_smiles> 
CCCOC(=O)C(=C)C 
 
>  <mulliken_charges> 
21 
1   -0.45371 
2   -0.369456 
3   -0.50005 
4   -0.272205 
5   -0.037732 
6   0.127171 
7   0.594865 
8   -0.488624 
9   -0.48091 
10   0.152899 
11   0.143882 
12   0.152469 
13   0.14739 
14   0.171409 
15   0.146491 
16   0.172063 
17   0.172785 
18   0.144095 
19   0.163669 
20   0.166773 
21   0.146726 
 
>  <lowdin_charges> 
21 
1   -0.446386 
2   -0.3015 
3   -0.435775 
4   -0.286713 
5   -0.134172 
6   -0.027668 
7   0.195708 
8   -0.272563 
9   -0.193292 
10   0.157065 
11   0.147826 
12   0.152981 
13   0.163366 
14   0.173121 
15   0.15547 
16   0.168898 
17   0.168562 
18   0.148243 
19   0.157624 
20   0.158655 
21   0.150552 
 
$$$$ 
 
