PCCDB-ID:  61322 
public computational chemistry database (PCCDB) project, http://pccdb.org 
 
 26 28  0  0  0  0  0  0  0  0999 V2000 
    0.9183   -0.0529    0.0178 C   0  0  0  0  0  0  0  0  0  0  0  0 
    7.8566   -5.1699    0.0609 C   0  0  0  0  0  0  0  0  0  0  0  0 
    2.4823   -2.6133    0.0287 C   0  0  0  0  0  0  0  0  0  0  0  0 
    3.1878   -3.8073    0.0336 C   0  0  0  0  0  0  0  0  0  0  0  0 
    3.1414    1.0725    0.0314 C   0  0  0  0  0  0  0  0  0  0  0  0 
    6.6760   -2.8398    0.0531 C   0  0  0  0  0  0  0  0  0  0  0  0 
    2.4236   -0.0811    0.0264 C   0  0  0  0  0  0  0  0  0  0  0  0 
    6.7319   -4.1976    0.0545 C   0  0  0  0  0  0  0  0  0  0  0  0 
    3.1319   -1.3511    0.0307 C   0  0  0  0  0  0  0  0  0  0  0  0 
    5.2793   -2.4933    0.0442 C   0  0  0  0  0  0  0  0  0  0  0  0 
    4.5793   -3.7084    0.0407 C   0  0  0  0  0  0  0  0  0  0  0  0 
    4.5938    1.1105    0.0412 C   0  0  0  0  0  0  0  0  0  0  0  0 
    4.5392   -1.3037    0.0385 C   0  0  0  0  0  0  0  0  0  0  0  0 
    5.2899    2.0985    0.0488 O   0  0  0  0  0  0  0  0  0  0  0  0 
    5.4607   -4.7494    0.0468 O   0  0  0  0  0  0  0  0  0  0  0  0 
    5.2339   -0.1347    0.0408 O   0  0  0  0  0  0  0  0  0  0  0  0 
    0.5455    0.9746    0.0131 H   0  0  0  0  0  0  0  0  0  0  0  0 
    0.5082   -0.5608    0.8994 H   0  0  0  0  0  0  0  0  0  0  0  0 
    0.5178   -0.5655   -0.8654 H   0  0  0  0  0  0  0  0  0  0  0  0 
    8.8109   -4.6373    0.0646 H   0  0  0  0  0  0  0  0  0  0  0  0 
    7.8243   -5.8188   -0.8227 H   0  0  0  0  0  0  0  0  0  0  0  0 
    7.8163   -5.8169    0.9456 H   0  0  0  0  0  0  0  0  0  0  0  0 
    1.3981   -2.6436    0.0235 H   0  0  0  0  0  0  0  0  0  0  0  0 
    2.6895   -4.7702    0.0322 H   0  0  0  0  0  0  0  0  0  0  0  0 
    2.6580    2.0433    0.0288 H   0  0  0  0  0  0  0  0  0  0  0  0 
    7.5162   -2.1610    0.0595 H   0  0  0  0  0  0  0  0  0  0  0  0 
  1  7  1  0  0  0  0 
  1 18  1  0  0  0  0 
  2 20  1  0  0  0  0 
  2 22  1  0  0  0  0 
  3  9  2  0  0  0  0 
  3  4  1  0  0  0  0 
  4 11  2  0  0  0  0 
  5 12  1  0  0  0  0 
  6  8  2  0  0  0  0 
  6 26  1  0  0  0  0 
  7  9  1  0  0  0  0 
  7  5  2  0  0  0  0 
  8  2  1  0  0  0  0 
  9 13  1  0  0  0  0 
 10  6  1  0  0  0  0 
 11 10  1  0  0  0  0 
 11 15  1  0  0  0  0 
 12 14  2  0  0  0  0 
 13 16  1  0  0  0  0 
 13 10  2  0  0  0  0 
 15  8  1  0  0  0  0 
 16 12  1  0  0  0  0 
 17  1  1  0  0  0  0 
 19  1  1  0  0  0  0 
 21  2  1  0  0  0  0 
 23  3  1  0  0  0  0 
 24  4  1  0  0  0  0 
 25  5  1  0  0  0  0 
M  END 
>  <HBA> 
3 
 
>  <HBD> 
0 
 
>  <TPSA> 
43.35 
 
>  <cid> 
61322 
 
>  <dipole> 
4.52 
 
>  <excitation_energy_1> 
3.82 
 
>  <excitation_energy_2> 
4.297 
 
>  <excitation_energy_3> 
4.624 
 
>  <excitation_energy_4> 
4.889 
 
>  <homo_energy> 
-5.948 
 
>  <homo_lumo_gap> 
4.457 
 
>  <logP> 
3.156 
 
>  <lumo_energy> 
-1.491 
 
>  <melting_point> 
136.57 
 
>  <molecular_refractivity> 
62.19 
 
>  <oscillator_strength_1> 
0.0456 
 
>  <oscillator_strength_2> 
0.1553 
 
>  <oscillator_strength_3> 
0.0 
 
>  <oscillator_strength_4> 
0.0489 
 
>  <open_babel_can_smiles> 
Cc1oc2c(c1)c1oc(=O)cc(c1cc2)C 
 
>  <mulliken_charges> 
26 
1   -0.538316 
2   -0.533444 
3   -0.223278 
4   -0.183701 
5   -0.304161 
6   -0.230592 
7   0.195659 
8   0.344864 
9   0.099188 
10   0.07838 
11   0.330654 
12   0.606897 
13   0.211518 
14   -0.476597 
15   -0.51213 
16   -0.519311 
17   0.171392 
18   0.174862 
19   0.17476 
20   0.174779 
21   0.17864 
22   0.178593 
23   0.137014 
24   0.149068 
25   0.152535 
26   0.16273 
 
>  <lowdin_charges> 
26 
1   -0.441883 
2   -0.440904 
3   -0.154649 
4   -0.182742 
5   -0.224503 
6   -0.214637 
7   0.045917 
8   0.097642 
9   -0.057269 
10   -0.04557 
11   0.093244 
12   0.197074 
13   0.110268 
14   -0.248001 
15   -0.11743 
16   -0.133749 
17   0.165927 
18   0.169171 
19   0.169082 
20   0.173098 
21   0.17225 
22   0.172197 
23   0.163229 
24   0.172794 
25   0.176659 
26   0.182785 
 
$$$$ 
 
