PCCDB-ID:  55021 
public computational chemistry database (PCCDB) project, http://pccdb.org 
 
 27 28  0  0  1  0  0  0  0  0999 V2000 
    1.3966    0.1831   -0.1205 C   0  0  0  0  0  0  0  0  0  0  0  0 
    2.7926    1.9092    4.5415 C   0  0  0  0  0  0  0  0  0  0  0  0 
    1.5549    1.4547    4.0836 C   0  0  0  0  0  0  0  0  0  0  0  0 
    3.9375    1.6584    3.7839 C   0  0  0  0  0  0  0  0  0  0  0  0 
    1.4620    0.7511    2.8811 C   0  0  0  0  0  0  0  0  0  0  0  0 
    3.8404    0.9567    2.5814 C   0  0  0  0  0  0  0  0  0  0  0  0 
    3.1112   -2.7162    3.4199 C   0  0  0  0  0  0  0  0  0  0  0  0 
    1.7601   -3.3619    3.1314 C   0  0  0  0  0  0  0  0  0  0  0  0 
    2.5461   -0.2769    0.7947 C   0  0  1  0  0  0  0  0  0  0  0  0 
    2.6056    0.4846    2.1116 C   0  0  0  0  0  0  0  0  0  0  0  0 
    2.5417   -1.8308    0.9235 C   0  0  0  0  0  0  0  0  0  0  0  0 
    3.9869   -2.5361    1.8206 S   0  0  0  0  0  0  0  0  0  0  0  0 
    0.9896   -2.5301    1.6776 S   0  0  0  0  0  0  0  0  0  0  0  0 
    1.4492    1.2642   -0.2857 H   0  0  0  0  0  0  0  0  0  0  0  0 
    0.4160   -0.0433    0.3104 H   0  0  0  0  0  0  0  0  0  0  0  0 
    1.4554   -0.3144   -1.0960 H   0  0  0  0  0  0  0  0  0  0  0  0 
    2.8630    2.4595    5.4762 H   0  0  0  0  0  0  0  0  0  0  0  0 
    0.6549    1.6508    4.6609 H   0  0  0  0  0  0  0  0  0  0  0  0 
    4.9070    2.0122    4.1249 H   0  0  0  0  0  0  0  0  0  0  0  0 
    0.4918    0.4016    2.5454 H   0  0  0  0  0  0  0  0  0  0  0  0 
    4.7372    0.7673    1.9973 H   0  0  0  0  0  0  0  0  0  0  0  0 
    3.7286   -3.3557    4.0592 H   0  0  0  0  0  0  0  0  0  0  0  0 
    2.9952   -1.7397    3.8958 H   0  0  0  0  0  0  0  0  0  0  0  0 
    1.0764   -3.2442    3.9788 H   0  0  0  0  0  0  0  0  0  0  0  0 
    1.8771   -4.4263    2.9123 H   0  0  0  0  0  0  0  0  0  0  0  0 
    3.4838   -0.0594    0.2649 H   0  0  0  0  0  0  0  0  0  0  0  0 
    2.6067   -2.2392   -0.0897 H   0  0  0  0  0  0  0  0  0  0  0  0 
  1 15  1  0  0  0  0 
  1  9  1  0  0  0  0 
  2 17  1  0  0  0  0 
  3  2  1  0  0  0  0 
  3 18  1  0  0  0  0 
  4 19  1  0  0  0  0 
  4  2  2  0  0  0  0 
  5  3  2  0  0  0  0 
  6  4  1  0  0  0  0 
  7 23  1  0  0  0  0 
  7 22  1  0  0  0  0 
  8  7  1  0  0  0  0 
  8 24  1  0  0  0  0 
  9 26  1  6  0  0  0 
  9 11  1  0  0  0  0 
  9 10  1  0  0  0  0 
 10  6  2  0  0  0  0 
 10  5  1  0  0  0  0 
 11 13  1  0  0  0  0 
 11 12  1  0  0  0  0 
 12  7  1  0  0  0  0 
 13  8  1  0  0  0  0 
 14  1  1  0  0  0  0 
 16  1  1  0  0  0  0 
 20  5  1  0  0  0  0 
 21  6  1  0  0  0  0 
 25  8  1  0  0  0  0 
 27 11  1  0  0  0  0 
M  END 
>  <HBA> 
2 
 
>  <HBD> 
0 
 
>  <TPSA> 
50.6 
 
>  <cid> 
55021 
 
>  <dipole> 
1.15 
 
>  <excitation_energy_1> 
4.78 
 
>  <excitation_energy_2> 
4.806 
 
>  <excitation_energy_3> 
5.108 
 
>  <excitation_energy_4> 
5.205 
 
>  <homo_energy> 
-6.057 
 
>  <homo_lumo_gap> 
6.052 
 
>  <logP> 
3.596 
 
>  <lumo_energy> 
-0.005 
 
>  <melting_point> 
45.01 
 
>  <molecular_refractivity> 
63.7 
 
>  <oscillator_strength_1> 
0.0015 
 
>  <oscillator_strength_2> 
0.0019 
 
>  <oscillator_strength_3> 
0.0031 
 
>  <oscillator_strength_4> 
0.0038 
 
>  <open_babel_can_smiles> 
C[C@@H](c1ccccc1)C1SCCS1 
 
>  <mulliken_charges> 
27 
1   -0.460902 
2   -0.131326 
3   -0.138484 
4   -0.132329 
5   -0.174959 
6   -0.17692 
7   -0.421737 
8   -0.410567 
9   -0.154497 
10   0.167465 
11   -0.415315 
12   0.115238 
13   0.098222 
14   0.158474 
15   0.168732 
16   0.144419 
17   0.12738 
18   0.127782 
19   0.12833 
20   0.142872 
21   0.132954 
22   0.181602 
23   0.207265 
24   0.182297 
25   0.188896 
26   0.146415 
27   0.198693 
 
>  <lowdin_charges> 
27 
1   -0.444417 
2   -0.159393 
3   -0.162438 
4   -0.161084 
5   -0.163662 
6   -0.162852 
7   -0.377501 
8   -0.370774 
9   -0.12873 
10   -0.005794 
11   -0.323368 
12   0.107942 
13   0.079855 
14   0.157032 
15   0.159217 
16   0.150338 
17   0.156159 
18   0.156962 
19   0.156944 
20   0.164094 
21   0.159723 
22   0.174829 
23   0.173949 
24   0.171215 
25   0.16377 
26   0.153245 
27   0.17474 
 
$$$$ 
 
