PCCDB-ID:  68872 
public computational chemistry database (PCCDB) project, http://pccdb.org 
 
 26 27  0  0  0  0  0  0  0  0999 V2000 
    1.5007   -1.6838   -0.5131 C   0  0  0  0  0  0  0  0  0  0  0  0 
   11.4503   -1.0680   -0.5621 C   0  0  0  0  0  0  0  0  0  0  0  0 
    2.6451   -2.0628   -0.5204 C   0  0  0  0  0  0  0  0  0  0  0  0 
    7.0800   -0.5623   -0.5097 C   0  0  0  0  0  0  0  0  0  0  0  0 
    8.4529   -0.7124   -0.5253 C   0  0  0  0  0  0  0  0  0  0  0  0 
    4.0158   -2.5602   -0.5436 C   0  0  0  0  0  0  0  0  0  0  0  0 
   10.9371   -3.5084   -0.6290 C   0  0  0  0  0  0  0  0  0  0  0  0 
    6.8091   -2.9768   -0.5793 C   0  0  0  0  0  0  0  0  0  0  0  0 
   10.4893   -2.2261   -0.5877 C   0  0  0  0  0  0  0  0  0  0  0  0 
    6.2484   -1.7005   -0.5377 C   0  0  0  0  0  0  0  0  0  0  0  0 
    9.0576   -1.9878   -0.5680 C   0  0  0  0  0  0  0  0  0  0  0  0 
    8.2010   -3.1040   -0.5948 C   0  0  0  0  0  0  0  0  0  0  0  0 
   10.0525   -4.6606   -0.6547 C   0  0  0  0  0  0  0  0  0  0  0  0 
   10.3819   -5.8227   -0.6897 O   0  0  0  0  0  0  0  0  0  0  0  0 
    4.9128   -1.4442   -0.5218 O   0  0  0  0  0  0  0  0  0  0  0  0 
    8.6809   -4.3773   -0.6372 O   0  0  0  0  0  0  0  0  0  0  0  0 
    0.4907   -1.3409   -0.4994 H   0  0  0  0  0  0  0  0  0  0  0  0 
   12.4853   -1.4178   -0.5886 H   0  0  0  0  0  0  0  0  0  0  0  0 
   11.3171   -0.4632    0.3435 H   0  0  0  0  0  0  0  0  0  0  0  0 
   11.2911   -0.4024   -1.4194 H   0  0  0  0  0  0  0  0  0  0  0  0 
    6.6165    0.4176   -0.4787 H   0  0  0  0  0  0  0  0  0  0  0  0 
    9.0790    0.1738   -0.5028 H   0  0  0  0  0  0  0  0  0  0  0  0 
    4.1882   -3.1596   -1.4490 H   0  0  0  0  0  0  0  0  0  0  0  0 
    4.2035   -3.2060    0.3259 H   0  0  0  0  0  0  0  0  0  0  0  0 
   11.9959   -3.7422   -0.6436 H   0  0  0  0  0  0  0  0  0  0  0  0 
    6.2162   -3.8821   -0.6035 H   0  0  0  0  0  0  0  0  0  0  0  0 
  1 17  1  0  0  0  0 
  2 19  1  0  0  0  0 
  3  1  3  0  0  0  0 
  4 21  1  0  0  0  0 
  5  4  1  0  0  0  0 
  5 22  1  0  0  0  0 
  6 15  1  0  0  0  0 
  6  3  1  0  0  0  0 
  6 24  1  0  0  0  0 
  7  9  2  0  0  0  0 
  8 10  1  0  0  0  0 
  9 11  1  0  0  0  0 
  9  2  1  0  0  0  0 
 10 15  1  0  0  0  0 
 10  4  2  0  0  0  0 
 11  5  2  0  0  0  0 
 12  8  2  0  0  0  0 
 12 11  1  0  0  0  0 
 13 16  1  0  0  0  0 
 13  7  1  0  0  0  0 
 14 13  2  0  0  0  0 
 16 12  1  0  0  0  0 
 18  2  1  0  0  0  0 
 20  2  1  0  0  0  0 
 23  6  1  0  0  0  0 
 25  7  1  0  0  0  0 
 26  8  1  0  0  0  0 
M  END 
>  <HBA> 
3 
 
>  <HBD> 
0 
 
>  <TPSA> 
39.44 
 
>  <cid> 
68872 
 
>  <dipole> 
4.38 
 
>  <excitation_energy_1> 
4.102 
 
>  <excitation_energy_2> 
4.557 
 
>  <excitation_energy_3> 
4.599 
 
>  <excitation_energy_4> 
5.121 
 
>  <homo_energy> 
-6.071 
 
>  <homo_lumo_gap> 
4.487 
 
>  <logP> 
2.113 
 
>  <lumo_energy> 
-1.584 
 
>  <melting_point> 
109.29 
 
>  <molecular_refractivity> 
61.72 
 
>  <oscillator_strength_1> 
0.3352 
 
>  <oscillator_strength_2> 
0.027 
 
>  <oscillator_strength_3> 
0.0 
 
>  <oscillator_strength_4> 
0.0568 
 
>  <open_babel_can_smiles> 
C#CCOc1ccc2c(c1)oc(=O)cc2C 
 
>  <mulliken_charges> 
26 
1   -0.519765 
2   -0.537325 
3   0.394781 
4   -0.172191 
5   -0.206085 
6   -0.184615 
7   -0.305262 
8   -0.256907 
9   0.202328 
10   0.394151 
11   0.081017 
12   0.31342 
13   0.605051 
14   -0.473222 
15   -0.510276 
16   -0.520982 
17   0.204735 
18   0.172242 
19   0.174943 
20   0.174753 
21   0.149928 
22   0.141348 
23   0.181895 
24   0.181522 
25   0.152985 
26   0.16153 
 
>  <lowdin_charges> 
26 
1   -0.215201 
2   -0.440605 
3   -0.046355 
4   -0.187379 
5   -0.141416 
6   -0.109724 
7   -0.223259 
8   -0.236787 
9   0.044654 
10   0.120295 
11   -0.063073 
12   0.124619 
13   0.19476 
14   -0.244831 
15   -0.183262 
16   -0.137066 
17   0.210066 
18   0.166331 
19   0.168932 
20   0.169055 
21   0.17344 
22   0.166962 
23   0.167193 
24   0.167229 
25   0.175708 
26   0.179713 
 
$$$$ 
 
