PCCDB-ID:  9201 
public computational chemistry database (PCCDB) project, http://pccdb.org 
 
 29 32  0  0  0  0  0  0  0  0999 V2000 
    4.6242    0.2008    0.0013 C   0  0  0  0  0  0  0  0  0  0  0  0 
    4.3472   -1.1880   -0.0001 C   0  0  0  0  0  0  0  0  0  0  0  0 
   -4.6517   -0.1990   -0.0004 C   0  0  0  0  0  0  0  0  0  0  0  0 
   -4.0443   -1.4600   -0.0012 C   0  0  0  0  0  0  0  0  0  0  0  0 
    3.5922    1.1132    0.0021 C   0  0  0  0  0  0  0  0  0  0  0  0 
    3.0451   -1.6353   -0.0009 C   0  0  0  0  0  0  0  0  0  0  0  0 
   -3.8748    0.9645    0.0007 C   0  0  0  0  0  0  0  0  0  0  0  0 
   -2.6538   -1.5788   -0.0008 C   0  0  0  0  0  0  0  0  0  0  0  0 
    1.1564    1.6154    0.0026 C   0  0  0  0  0  0  0  0  0  0  0  0 
   -1.4367    1.9450    0.0029 C   0  0  0  0  0  0  0  0  0  0  0  0 
    0.6053   -1.1633   -0.0003 C   0  0  0  0  0  0  0  0  0  0  0  0 
    2.2377    0.6875    0.0015 C   0  0  0  0  0  0  0  0  0  0  0  0 
    1.9557   -0.7220   -0.0000 C   0  0  0  0  0  0  0  0  0  0  0  0 
   -2.4887    0.8521    0.0005 C   0  0  0  0  0  0  0  0  0  0  0  0 
   -0.1369    1.1621    0.0030 C   0  0  0  0  0  0  0  0  0  0  0  0 
   -1.8759   -0.4181   -0.0001 C   0  0  0  0  0  0  0  0  0  0  0  0 
   -0.4181   -0.2414    0.0013 C   0  0  0  0  0  0  0  0  0  0  0  0 
    5.6551    0.5444    0.0015 H   0  0  0  0  0  0  0  0  0  0  0  0 
    5.1677   -1.9005   -0.0014 H   0  0  0  0  0  0  0  0  0  0  0  0 
   -5.7358   -0.1231    0.0001 H   0  0  0  0  0  0  0  0  0  0  0  0 
   -4.6613   -2.3547   -0.0019 H   0  0  0  0  0  0  0  0  0  0  0  0 
    3.8026    2.1804    0.0027 H   0  0  0  0  0  0  0  0  0  0  0  0 
    2.8301   -2.7015   -0.0022 H   0  0  0  0  0  0  0  0  0  0  0  0 
   -4.3531    1.9413    0.0026 H   0  0  0  0  0  0  0  0  0  0  0  0 
   -2.1874   -2.5607   -0.0011 H   0  0  0  0  0  0  0  0  0  0  0  0 
    1.3794    2.6807    0.0033 H   0  0  0  0  0  0  0  0  0  0  0  0 
   -1.5239    2.5967    0.8835 H   0  0  0  0  0  0  0  0  0  0  0  0 
   -1.5218    2.5995   -0.8757 H   0  0  0  0  0  0  0  0  0  0  0  0 
    0.4006   -2.2317   -0.0013 H   0  0  0  0  0  0  0  0  0  0  0  0 
  1 18  1  0  0  0  0 
  1  5  2  0  0  0  0 
  2  1  1  0  0  0  0 
  3 20  1  0  0  0  0 
  3  7  2  0  0  0  0 
  4  8  2  0  0  0  0 
  4  3  1  0  0  0  0 
  5 22  1  0  0  0  0 
  6  2  2  0  0  0  0 
  6 13  1  0  0  0  0 
  7 24  1  0  0  0  0 
  8 16  1  0  0  0  0 
  9 15  1  0  0  0  0 
  9 26  1  0  0  0  0 
 10 15  1  0  0  0  0 
 10 27  1  0  0  0  0 
 11 13  2  0  0  0  0 
 11 17  1  0  0  0  0 
 12  5  1  0  0  0  0 
 12  9  2  0  0  0  0 
 13 12  1  0  0  0  0 
 14  7  1  0  0  0  0 
 14 10  1  0  0  0  0 
 16 14  2  0  0  0  0 
 16 17  1  0  0  0  0 
 17 15  2  0  0  0  0 
 19  2  1  0  0  0  0 
 21  4  1  0  0  0  0 
 23  6  1  0  0  0  0 
 25  8  1  0  0  0  0 
 28 10  1  0  0  0  0 
 29 11  1  0  0  0  0 
M  END 
>  <HBA> 
0 
 
>  <HBD> 
0 
 
>  <TPSA> 
0.0 
 
>  <cid> 
9201 
 
>  <dipole> 
0.59 
 
>  <excitation_energy_1> 
3.91 
 
>  <excitation_energy_2> 
4.004 
 
>  <excitation_energy_3> 
4.57 
 
>  <excitation_energy_4> 
4.722 
 
>  <homo_energy> 
-5.519 
 
>  <homo_lumo_gap> 
4.318 
 
>  <logP> 
4.411 
 
>  <lumo_energy> 
-1.2 
 
>  <melting_point> 
118.85 
 
>  <molecular_refractivity> 
72.39 
 
>  <oscillator_strength_1> 
0.2039 
 
>  <oscillator_strength_2> 
0.0104 
 
>  <oscillator_strength_3> 
0.1387 
 
>  <oscillator_strength_4> 
0.7105 
 
>  <open_babel_can_smiles> 
c1ccc2c(c1)c1cc3ccccc3cc1C2 
 
>  <mulliken_charges> 
29 
1   -0.137101 
2   -0.13815 
3   -0.128501 
4   -0.13816 
5   -0.195375 
6   -0.191995 
7   -0.202144 
8   -0.187331 
9   -0.288747 
10   -0.420084 
11   -0.281775 
12   0.147196 
13   0.13695 
14   0.103364 
15   0.120605 
16   0.085306 
17   0.09477 
18   0.127995 
19   0.128156 
20   0.127956 
21   0.12865 
22   0.126971 
23   0.127363 
24   0.12543 
25   0.129974 
26   0.124205 
27   0.172845 
28   0.17284 
29   0.128787 
 
>  <lowdin_charges> 
29 
1   -0.159289 
2   -0.161512 
3   -0.153878 
4   -0.157324 
5   -0.156969 
6   -0.156229 
7   -0.163996 
8   -0.15922 
9   -0.164083 
10   -0.275348 
11   -0.163023 
12   0.000813 
13   0.001829 
14   -0.003809 
15   -0.005055 
16   -0.011214 
17   -0.011849 
18   0.15677 
19   0.158726 
20   0.155627 
21   0.158257 
22   0.154594 
23   0.154941 
24   0.156431 
25   0.157528 
26   0.154482 
27   0.168814 
28   0.168813 
29   0.155174 
 
$$$$ 
 
