PCCDB-ID:  69370 
public computational chemistry database (PCCDB) project, http://pccdb.org 
 
 14 14  0  0  0  0  0  0  0  0999 V2000 
   -1.3778   -0.0657    0.0129 C   0  0  0  0  0  0  0  0  0  0  0  0 
   -0.6170   -1.2349    0.0132 C   0  0  0  0  0  0  0  0  0  0  0  0 
   -0.7423    1.1728   -0.0163 C   0  0  0  0  0  0  0  0  0  0  0  0 
    0.7728   -1.1554   -0.0141 C   0  0  0  0  0  0  0  0  0  0  0  0 
    0.6554    1.2661   -0.0441 C   0  0  0  0  0  0  0  0  0  0  0  0 
    1.4242    0.0848   -0.0418 C   0  0  0  0  0  0  0  0  0  0  0  0 
    1.4914    2.8475   -0.0866 S   0  0  0  0  0  0  0  0  0  0  0  0 
    3.2088    0.2090   -0.0712 S   0  0  0  0  0  0  0  0  0  0  0  0 
   -2.4627   -0.1125    0.0350 H   0  0  0  0  0  0  0  0  0  0  0  0 
   -1.0992   -2.2078    0.0355 H   0  0  0  0  0  0  0  0  0  0  0  0 
   -1.3385    2.0813   -0.0192 H   0  0  0  0  0  0  0  0  0  0  0  0 
    1.3623   -2.0684   -0.0127 H   0  0  0  0  0  0  0  0  0  0  0  0 
    0.3725    3.5974   -0.0322 H   0  0  0  0  0  0  0  0  0  0  0  0 
    3.4398   -1.1190   -0.0912 H   0  0  0  0  0  0  0  0  0  0  0  0 
  1  2  1  0  0  0  0 
  1  9  1  0  0  0  0 
  2 10  1  0  0  0  0 
  3  1  2  0  0  0  0 
  4 12  1  0  0  0  0 
  4  2  2  0  0  0  0 
  5  6  2  0  0  0  0 
  5  3  1  0  0  0  0 
  6  4  1  0  0  0  0 
  7  5  1  0  0  0  0 
  7 13  1  0  0  0  0 
  8  6  1  0  0  0  0 
 11  3  1  0  0  0  0 
 14  8  1  0  0  0  0 
M  END 
>  <HBA> 
2 
 
>  <HBD> 
2 
 
>  <TPSA> 
77.6 
 
>  <cid> 
69370 
 
>  <dipole> 
2.19 
 
>  <excitation_energy_1> 
4.238 
 
>  <excitation_energy_2> 
4.537 
 
>  <excitation_energy_3> 
4.791 
 
>  <excitation_energy_4> 
5.039 
 
>  <homo_energy> 
-5.837 
 
>  <homo_lumo_gap> 
5.486 
 
>  <logP> 
2.264 
 
>  <lumo_energy> 
-0.351 
 
>  <melting_point> 
53.85 
 
>  <molecular_refractivity> 
40.95 
 
>  <oscillator_strength_1> 
0.0013 
 
>  <oscillator_strength_2> 
0.0324 
 
>  <oscillator_strength_3> 
0.0002 
 
>  <oscillator_strength_4> 
0.0998 
 
>  <open_babel_can_smiles> 
Sc1ccccc1S 
 
>  <mulliken_charges> 
14 
1   -0.123475 
2   -0.123678 
3   -0.142511 
4   -0.142418 
5   -0.092986 
6   -0.092875 
7   -0.001616 
8   -0.001693 
9   0.135885 
10   0.135862 
11   0.131045 
12   0.131001 
13   0.093739 
14   0.093719 
 
>  <lowdin_charges> 
14 
1   -0.155406 
2   -0.157855 
3   -0.166199 
4   -0.166971 
5   -0.125155 
6   -0.123837 
7   0.003992 
8   0.007146 
9   0.160024 
10   0.161907 
11   0.159867 
12   0.15991 
13   0.122649 
14   0.119926 
 
$$$$ 
 
