PCCDB-ID:  17768 
public computational chemistry database (PCCDB) project, http://pccdb.org 
 
 25 26  0  0  0  0  0  0  0  0999 V2000 
    0.9679   -0.0184    0.0959 C   0  0  0  0  0  0  0  0  0  0  0  0 
    4.5547    3.7698   -0.3259 C   0  0  0  0  0  0  0  0  0  0  0  0 
    3.2338    3.7936    0.4467 C   0  0  0  0  0  0  0  0  0  0  0  0 
    4.5944   -1.1742    0.0651 C   0  0  0  0  0  0  0  0  0  0  0  0 
    3.1994   -1.1763    0.0762 C   0  0  0  0  0  0  0  0  0  0  0  0 
    5.3786    2.5508    0.1000 C   0  0  0  0  0  0  0  0  0  0  0  0 
    5.2758    0.0369    0.0671 C   0  0  0  0  0  0  0  0  0  0  0  0 
    2.3897    2.5551    0.1176 C   0  0  0  0  0  0  0  0  0  0  0  0 
    2.4797    0.0210    0.0961 C   0  0  0  0  0  0  0  0  0  0  0  0 
    4.5824    1.2551    0.0897 C   0  0  0  0  0  0  0  0  0  0  0  0 
    3.1754    1.2522    0.1117 C   0  0  0  0  0  0  0  0  0  0  0  0 
    0.6052   -1.0484    0.0261 H   0  0  0  0  0  0  0  0  0  0  0  0 
    0.5430    0.5425   -0.7465 H   0  0  0  0  0  0  0  0  0  0  0  0 
    0.5450    0.4199    1.0097 H   0  0  0  0  0  0  0  0  0  0  0  0 
    5.1263    4.6899   -0.1538 H   0  0  0  0  0  0  0  0  0  0  0  0 
    4.3471    3.7207   -1.4044 H   0  0  0  0  0  0  0  0  0  0  0  0 
    2.6608    4.7015    0.2221 H   0  0  0  0  0  0  0  0  0  0  0  0 
    3.4501    3.8162    1.5244 H   0  0  0  0  0  0  0  0  0  0  0  0 
    5.1427   -2.1126    0.0473 H   0  0  0  0  0  0  0  0  0  0  0  0 
    2.6590   -2.1202    0.0670 H   0  0  0  0  0  0  0  0  0  0  0  0 
    5.7694    2.7237    1.1149 H   0  0  0  0  0  0  0  0  0  0  0  0 
    6.2605    2.4396   -0.5439 H   0  0  0  0  0  0  0  0  0  0  0  0 
    6.3639    0.0490    0.0485 H   0  0  0  0  0  0  0  0  0  0  0  0 
    1.9211    2.6915   -0.8704 H   0  0  0  0  0  0  0  0  0  0  0  0 
    1.5540    2.4834    0.8253 H   0  0  0  0  0  0  0  0  0  0  0  0 
  1  9  1  0  0  0  0 
  1 14  1  0  0  0  0 
  2 15  1  0  0  0  0 
  2  6  1  0  0  0  0 
  2  3  1  0  0  0  0 
  3 18  1  0  0  0  0 
  4  7  2  0  0  0  0 
  4  5  1  0  0  0  0 
  5  9  2  0  0  0  0 
  6 21  1  0  0  0  0 
  7 10  1  0  0  0  0 
  8  3  1  0  0  0  0 
  8 25  1  0  0  0  0 
  9 11  1  0  0  0  0 
 10  6  1  0  0  0  0 
 10 11  2  0  0  0  0 
 11  8  1  0  0  0  0 
 12  1  1  0  0  0  0 
 13  1  1  0  0  0  0 
 16  2  1  0  0  0  0 
 17  3  1  0  0  0  0 
 19  4  1  0  0  0  0 
 20  5  1  0  0  0  0 
 22  6  1  0  0  0  0 
 23  7  1  0  0  0  0 
 24  8  1  0  0  0  0 
M  END 
>  <HBA> 
0 
 
>  <HBD> 
0 
 
>  <TPSA> 
0.0 
 
>  <cid> 
17768 
 
>  <dipole> 
0.65 
 
>  <excitation_energy_1> 
5.125 
 
>  <excitation_energy_2> 
5.634 
 
>  <excitation_energy_3> 
5.8 
 
>  <excitation_energy_4> 
5.825 
 
>  <homo_energy> 
-6.153 
 
>  <homo_lumo_gap> 
6.387 
 
>  <logP> 
2.874 
 
>  <lumo_energy> 
0.234 
 
>  <melting_point> 
38.08 
 
>  <molecular_refractivity> 
48.84 
 
>  <oscillator_strength_1> 
0.0007 
 
>  <oscillator_strength_2> 
0.0021 
 
>  <oscillator_strength_3> 
0.0209 
 
>  <oscillator_strength_4> 
0.0188 
 
>  <open_babel_can_smiles> 
Cc1cccc2c1CCCC2 
 
>  <mulliken_charges> 
25 
1   -0.533342 
2   -0.263338 
3   -0.265074 
4   -0.123991 
5   -0.189436 
6   -0.340941 
7   -0.191646 
8   -0.342239 
9   0.126204 
10   0.12054 
11   0.066241 
12   0.152724 
13   0.157311 
14   0.158832 
15   0.13123 
16   0.135916 
17   0.131372 
18   0.13579 
19   0.121883 
20   0.115655 
21   0.148153 
22   0.142886 
23   0.115107 
24   0.146802 
25   0.143362 
 
>  <lowdin_charges> 
25 
1   -0.442995 
2   -0.274453 
3   -0.274411 
4   -0.160813 
5   -0.174154 
6   -0.275468 
7   -0.168178 
8   -0.276661 
9   -0.005954 
10   -0.014692 
11   -0.025744 
12   0.155109 
13   0.157814 
14   0.157367 
15   0.144577 
16   0.13929 
17   0.144913 
18   0.139101 
19   0.154806 
20   0.151501 
21   0.149039 
22   0.150946 
23   0.149161 
24   0.148164 
25   0.151735 
 
$$$$ 
 
