PCCDB-ID:  45542 
public computational chemistry database (PCCDB) project, http://pccdb.org 
 
 32 33  0  0  0  0  0  0  0  0999 V2000 
    1.1058    0.1121    0.0767 C   0  0  0  0  0  0  0  0  0  0  0  0 
    9.1075   -2.8397   -2.1327 C   0  0  0  0  0  0  0  0  0  0  0  0 
    8.3260    0.9807   -0.2877 C   0  0  0  0  0  0  0  0  0  0  0  0 
    4.9961   -2.6044   -1.1896 C   0  0  0  0  0  0  0  0  0  0  0  0 
    6.3552   -2.7316   -1.4791 C   0  0  0  0  0  0  0  0  0  0  0  0 
    4.6298    1.1522   -0.6956 C   0  0  0  0  0  0  0  0  0  0  0  0 
    3.1062    1.1387   -0.8243 C   0  0  0  0  0  0  0  0  0  0  0  0 
    2.9292   -1.2516   -0.6837 C   0  0  0  0  0  0  0  0  0  0  0  0 
    4.4191   -1.3591   -0.9431 C   0  0  0  0  0  0  0  0  0  0  0  0 
    5.2278   -0.2105   -0.9722 C   0  0  0  0  0  0  0  0  0  0  0  0 
    7.1648   -1.5934   -1.5201 C   0  0  0  0  0  0  0  0  0  0  0  0 
    6.5944   -0.3331   -1.2495 C   0  0  0  0  0  0  0  0  0  0  0  0 
    2.5486    0.0175   -0.0714 N   0  0  0  0  0  0  0  0  0  0  0  0 
    8.5021   -1.5985   -1.8132 O   0  0  0  0  0  0  0  0  0  0  0  0 
    7.3562    0.8131   -1.3236 O   0  0  0  0  0  0  0  0  0  0  0  0 
    0.8470    1.0474    0.5849 H   0  0  0  0  0  0  0  0  0  0  0  0 
    0.7423   -0.7204    0.6901 H   0  0  0  0  0  0  0  0  0  0  0  0 
    0.5631    0.0838   -0.8899 H   0  0  0  0  0  0  0  0  0  0  0  0 
   10.1527   -2.6148   -2.3535 H   0  0  0  0  0  0  0  0  0  0  0  0 
    8.6419   -3.3004   -3.0141 H   0  0  0  0  0  0  0  0  0  0  0  0 
    9.0586   -3.5446   -1.2916 H   0  0  0  0  0  0  0  0  0  0  0  0 
    9.0976    0.2062   -0.3349 H   0  0  0  0  0  0  0  0  0  0  0  0 
    7.8515    0.9655    0.7027 H   0  0  0  0  0  0  0  0  0  0  0  0 
    8.7802    1.9606   -0.4542 H   0  0  0  0  0  0  0  0  0  0  0  0 
    4.3769   -3.4985   -1.1616 H   0  0  0  0  0  0  0  0  0  0  0  0 
    6.7712   -3.7138   -1.6723 H   0  0  0  0  0  0  0  0  0  0  0  0 
    4.8950    1.4653    0.3235 H   0  0  0  0  0  0  0  0  0  0  0  0 
    5.0627    1.8969   -1.3716 H   0  0  0  0  0  0  0  0  0  0  0  0 
    2.8144    1.0955   -1.8944 H   0  0  0  0  0  0  0  0  0  0  0  0 
    2.6937    2.0694   -0.4185 H   0  0  0  0  0  0  0  0  0  0  0  0 
    2.6108   -2.0654   -0.0189 H   0  0  0  0  0  0  0  0  0  0  0  0 
    2.3857   -1.4058   -1.6428 H   0  0  0  0  0  0  0  0  0  0  0  0 
  1 16  1  0  0  0  0 
  1 17  1  0  0  0  0 
  2 14  1  0  0  0  0 
  2 21  1  0  0  0  0 
  3 23  1  0  0  0  0 
  4 25  1  0  0  0  0 
  4  9  2  0  0  0  0 
  5  4  1  0  0  0  0 
  6 27  1  0  0  0  0 
  7  6  1  0  0  0  0 
  7 30  1  0  0  0  0 
  7 13  1  0  0  0  0 
  8 13  1  0  0  0  0 
  8 31  1  0  0  0  0 
  9  8  1  0  0  0  0 
 10  9  1  0  0  0  0 
 10  6  1  0  0  0  0 
 11  5  2  0  0  0  0 
 11 12  1  0  0  0  0 
 12 10  2  0  0  0  0 
 13  1  1  0  0  0  0 
 14 11  1  0  0  0  0 
 15 12  1  0  0  0  0 
 15  3  1  0  0  0  0 
 18  1  1  0  0  0  0 
 19  2  1  0  0  0  0 
 20  2  1  0  0  0  0 
 22  3  1  0  0  0  0 
 24  3  1  0  0  0  0 
 26  5  1  0  0  0  0 
 28  6  1  0  0  0  0 
 29  7  1  0  0  0  0 
 32  8  1  0  0  0  0 
M  END 
>  <HBA> 
3 
 
>  <HBD> 
0 
 
>  <TPSA> 
21.7 
 
>  <cid> 
45542 
 
>  <dipole> 
1.54 
 
>  <excitation_energy_1> 
4.802 
 
>  <excitation_energy_2> 
5.047 
 
>  <excitation_energy_3> 
5.194 
 
>  <excitation_energy_4> 
5.217 
 
>  <homo_energy> 
-5.464 
 
>  <homo_lumo_gap> 
5.679 
 
>  <logP> 
1.63 
 
>  <lumo_energy> 
0.215 
 
>  <melting_point> 
48.09 
 
>  <molecular_refractivity> 
63.67 
 
>  <oscillator_strength_1> 
0.0243 
 
>  <oscillator_strength_2> 
0.0033 
 
>  <oscillator_strength_3> 
0.0085 
 
>  <oscillator_strength_4> 
0.0475 
 
>  <open_babel_can_smiles> 
COc1c(OC)ccc2c1CCN(C2)C 
 
>  <mulliken_charges> 
32 
1   -0.286595 
2   -0.21328 
3   -0.208801 
4   -0.192343 
5   -0.209272 
6   -0.322558 
7   -0.137302 
8   -0.183052 
9   0.096442 
10   0.07806 
11   0.357041 
12   0.231471 
13   -0.387683 
14   -0.511672 
15   -0.523236 
16   0.148307 
17   0.146805 
18   0.115818 
19   0.168288 
20   0.152888 
21   0.14974 
22   0.161375 
23   0.138312 
24   0.155123 
25   0.117433 
26   0.129257 
27   0.155039 
28   0.159632 
29   0.113688 
30   0.134703 
31   0.146074 
32   0.1203 
 
>  <lowdin_charges> 
32 
1   -0.356091 
2   -0.277129 
3   -0.274327 
4   -0.166348 
5   -0.212224 
6   -0.275311 
7   -0.197481 
8   -0.196969 
9   -0.028572 
10   -0.023374 
11   0.077162 
12   0.060799 
13   -0.183943 
14   -0.198306 
15   -0.225967 
16   0.149886 
17   0.149991 
18   0.119584 
19   0.160414 
20   0.146475 
21   0.144126 
22   0.149565 
23   0.13709 
24   0.153749 
25   0.154152 
26   0.161138 
27   0.15549 
28   0.162962 
29   0.114932 
30   0.146011 
31   0.150897 
32   0.12162 
 
$$$$ 
 
