PCCDB-ID:  51285 
public computational chemistry database (PCCDB) project, http://pccdb.org 
 
 32 35  0  0  1  0  0  0  0  0999 V2000 
    0.7629    0.1759    0.1846 C   0  0  0  0  0  0  0  0  0  0  0  0 
    2.7881    5.5063    0.3020 C   0  0  0  0  0  0  0  0  0  0  0  0 
    2.1275    4.6481   -0.6092 C   0  0  0  0  0  0  0  0  0  0  0  0 
    3.3176   -3.3693    1.3171 C   0  0  0  0  0  0  0  0  0  0  0  0 
    4.1247   -2.9810    2.3915 C   0  0  0  0  0  0  0  0  0  0  0  0 
    3.4953    4.9759    1.3578 C   0  0  0  0  0  0  0  0  0  0  0  0 
    2.6913   -2.4080    0.5138 C   0  0  0  0  0  0  0  0  0  0  0  0 
    2.1736    3.2819   -0.4412 C   0  0  0  0  0  0  0  0  0  0  0  0 
    4.3236   -1.6287    2.6807 C   0  0  0  0  0  0  0  0  0  0  0  0 
    4.3242    3.0173    2.6327 C   0  0  0  0  0  0  0  0  0  0  0  0 
    4.4218    1.6572    2.8105 C   0  0  0  0  0  0  0  0  0  0  0  0 
    2.3065    0.1640    0.1074 C   0  0  2  0  0  0  0  0  0  0  0  0 
    3.5711    3.5726    1.5596 C   0  0  0  0  0  0  0  0  0  0  0  0 
    2.8878   -1.0615    0.7955 C   0  0  0  0  0  0  0  0  0  0  0  0 
    2.8809    2.6992    0.6475 C   0  0  0  0  0  0  0  0  0  0  0  0 
    3.7024   -0.6708    1.8770 C   0  0  0  0  0  0  0  0  0  0  0  0 
    3.7392    0.7957    1.9194 C   0  0  0  0  0  0  0  0  0  0  0  0 
    2.9680    1.3012    0.8759 C   0  0  0  0  0  0  0  0  0  0  0  0 
    0.3470   -0.7008   -0.3239 H   0  0  0  0  0  0  0  0  0  0  0  0 
    0.3419    1.0707   -0.2833 H   0  0  0  0  0  0  0  0  0  0  0  0 
    0.4343    0.1524    1.2286 H   0  0  0  0  0  0  0  0  0  0  0  0 
    2.7422    6.5825    0.1598 H   0  0  0  0  0  0  0  0  0  0  0  0 
    1.5848    5.0724   -1.4498 H   0  0  0  0  0  0  0  0  0  0  0  0 
    3.1756   -4.4252    1.1034 H   0  0  0  0  0  0  0  0  0  0  0  0 
    4.6029   -3.7386    3.0067 H   0  0  0  0  0  0  0  0  0  0  0  0 
    4.0159    5.6298    2.0539 H   0  0  0  0  0  0  0  0  0  0  0  0 
    2.0647   -2.7183   -0.3193 H   0  0  0  0  0  0  0  0  0  0  0  0 
    1.6766    2.6352   -1.1575 H   0  0  0  0  0  0  0  0  0  0  0  0 
    4.9536   -1.3342    3.5162 H   0  0  0  0  0  0  0  0  0  0  0  0 
    4.8376    3.6959    3.3098 H   0  0  0  0  0  0  0  0  0  0  0  0 
    5.0156    1.2493    3.6243 H   0  0  0  0  0  0  0  0  0  0  0  0 
    2.6027    0.1880   -0.9520 H   0  0  0  0  0  0  0  0  0  0  0  0 
  1 21  1  0  0  0  0 
  2  6  2  0  0  0  0 
  3  8  2  0  0  0  0 
  3  2  1  0  0  0  0 
  4  5  2  0  0  0  0 
  5  9  1  0  0  0  0 
  5 25  1  0  0  0  0 
  6 13  1  0  0  0  0 
  6 26  1  0  0  0  0 
  7 14  2  0  0  0  0 
  7  4  1  0  0  0  0 
  8 15  1  0  0  0  0 
  9 29  1  0  0  0  0 
 10 11  1  0  0  0  0 
 10 30  1  0  0  0  0 
 11 31  1  0  0  0  0 
 12 32  1  6  0  0  0 
 12  1  1  0  0  0  0 
 12 14  1  0  0  0  0 
 12 18  1  0  0  0  0 
 13 10  2  0  0  0  0 
 14 16  1  0  0  0  0 
 15 18  2  0  0  0  0 
 15 13  1  0  0  0  0 
 16 17  1  0  0  0  0 
 16  9  2  0  0  0  0 
 17 11  2  0  0  0  0 
 18 17  1  0  0  0  0 
 19  1  1  0  0  0  0 
 20  1  1  0  0  0  0 
 22  2  1  0  0  0  0 
 23  3  1  0  0  0  0 
 24  4  1  0  0  0  0 
 27  7  1  0  0  0  0 
 28  8  1  0  0  0  0 
M  END 
>  <HBA> 
0 
 
>  <HBD> 
0 
 
>  <TPSA> 
0.0 
 
>  <cid> 
51285 
 
>  <dipole> 
0.41 
 
>  <excitation_energy_1> 
3.812 
 
>  <excitation_energy_2> 
3.999 
 
>  <excitation_energy_3> 
4.513 
 
>  <excitation_energy_4> 
4.723 
 
>  <homo_energy> 
-5.448 
 
>  <homo_lumo_gap> 
4.316 
 
>  <logP> 
4.972 
 
>  <lumo_energy> 
-1.132 
 
>  <melting_point> 
118.18 
 
>  <molecular_refractivity> 
77.2 
 
>  <oscillator_strength_1> 
0.0507 
 
>  <oscillator_strength_2> 
0.1166 
 
>  <oscillator_strength_3> 
0.1967 
 
>  <oscillator_strength_4> 
0.5573 
 
>  <open_babel_can_smiles> 
C[C@@H]1c2ccccc2c2c1c1ccccc1cc2 
 
>  <mulliken_charges> 
32 
1   -0.438746 
2   -0.131526 
3   -0.14116 
4   -0.130812 
5   -0.136673 
6   -0.203214 
7   -0.205508 
8   -0.191955 
9   -0.19544 
10   -0.204424 
11   -0.187143 
12   -0.242043 
13   0.150781 
14   0.115286 
15   0.0855 
16   0.078567 
17   0.07925 
18   0.001493 
19   0.147964 
20   0.151234 
21   0.159757 
22   0.129116 
23   0.128914 
24   0.1262 
25   0.127035 
26   0.129386 
27   0.123927 
28   0.131133 
29   0.127824 
30   0.128539 
31   0.130267 
32   0.15647 
 
>  <lowdin_charges> 
32 
1   -0.434855 
2   -0.160002 
3   -0.156873 
4   -0.158158 
5   -0.158261 
6   -0.155822 
7   -0.16413 
8   -0.164527 
9   -0.164468 
10   -0.156248 
11   -0.162751 
12   -0.120094 
13   -0.00028 
14   -0.003288 
15   -0.00509 
16   -0.011746 
17   -0.012689 
18   -0.010176 
19   0.152175 
20   0.15272 
21   0.157179 
22   0.156582 
23   0.158832 
24   0.155403 
25   0.158316 
26   0.158698 
27   0.156009 
28   0.159774 
29   0.157046 
30   0.158926 
31   0.159579 
32   0.15822 
 
$$$$ 
 
