PCCDB-ID:  8010 
public computational chemistry database (PCCDB) project, http://pccdb.org 
 
  7  6  0  0  0  0  0  0  0  0999 V2000 
    0.9916   -0.1032    0.0260 C   0  0  0  0  0  0  0  0  0  0  0  0 
    0.4314   -1.0845   -0.9140 C   0  0  0  0  0  0  0  0  0  0  0  0 
    2.4614   -0.0961    0.0321 C   0  0  0  0  0  0  0  0  0  0  0  0 
   -0.0307   -1.8521   -1.6492 N   0  0  0  0  0  0  0  0  0  0  0  0 
    3.6200   -0.0746    0.0523 N   0  0  0  0  0  0  0  0  0  0  0  0 
    0.6272   -0.3231    1.0375 H   0  0  0  0  0  0  0  0  0  0  0  0 
    0.6267    0.8979   -0.2368 H   0  0  0  0  0  0  0  0  0  0  0  0 
  1  3  1  0  0  0  0 
  1  6  1  0  0  0  0 
  2  1  1  0  0  0  0 
  3  5  3  0  0  0  0 
  4  2  3  0  0  0  0 
  7  1  1  0  0  0  0 
M  END 
>  <HBA> 
2 
 
>  <HBD> 
0 
 
>  <TPSA> 
47.58 
 
>  <cid> 
8010 
 
>  <dipole> 
3.72 
 
>  <excitation_energy_1> 
7.389 
 
>  <excitation_energy_2> 
7.651 
 
>  <excitation_energy_3> 
7.816 
 
>  <excitation_energy_4> 
7.88 
 
>  <homo_energy> 
-9.51 
 
>  <homo_lumo_gap> 
9.07 
 
>  <logP> 
0.424 
 
>  <lumo_energy> 
-0.441 
 
>  <melting_point> 
43.23 
 
>  <molecular_refractivity> 
16.03 
 
>  <oscillator_strength_1> 
0.0009 
 
>  <oscillator_strength_2> 
0.0 
 
>  <oscillator_strength_3> 
0.0136 
 
>  <oscillator_strength_4> 
0.0054 
 
>  <open_babel_can_smiles> 
N#CCC#N 
 
>  <mulliken_charges> 
7 
1   -0.397233 
2   0.376129 
3   0.376091 
4   -0.430863 
5   -0.430831 
6   0.253357 
7   0.253351 
 
>  <lowdin_charges> 
7 
1   -0.25391 
2   -0.008149 
3   -0.010275 
4   -0.081677 
5   -0.081533 
6   0.217707 
7   0.217837 
 
$$$$ 
 
