PCCDB-ID:  65107 
public computational chemistry database (PCCDB) project, http://pccdb.org 
 
  9  8  0  0  0  0  0  0  0  0999 V2000 
    1.2399   -0.0645    0.0797 N   0  0  0  0  0  0  0  0  0  0  0  0 
    2.8874   -0.3754    1.9981 O   0  0  0  0  0  0  0  0  0  0  0  0 
    2.8808   -1.9650   -0.0926 O   0  0  0  0  0  0  0  0  0  0  0  0 
    3.9240    0.4016   -0.2338 O   0  0  0  0  0  0  0  0  0  0  0  0 
    2.8381   -0.4065    0.3712 P   0  0  0  0  0  0  0  0  0  0  0  0 
    0.7411    0.4694    0.7790 H   0  0  0  0  0  0  0  0  0  0  0  0 
    0.6888   -0.7858   -0.3654 H   0  0  0  0  0  0  0  0  0  0  0  0 
    3.7602   -0.0527    2.2798 H   0  0  0  0  0  0  0  0  0  0  0  0 
    3.7191   -2.1279   -0.5570 H   0  0  0  0  0  0  0  0  0  0  0  0 
  1  5  1  0  0  0  0 
  1  6  1  0  0  0  0 
  2  8  1  0  0  0  0 
  3  5  1  0  0  0  0 
  4  5  2  0  0  0  0 
  5  2  1  0  0  0  0 
  7  1  1  0  0  0  0 
  9  3  1  0  0  0  0 
M  END 
>  <HBA> 
4 
 
>  <HBD> 
3 
 
>  <TPSA> 
93.36 
 
>  <cid> 
65107 
 
>  <dipole> 
2.12 
 
>  <excitation_energy_1> 
6.337 
 
>  <excitation_energy_2> 
6.657 
 
>  <excitation_energy_3> 
7.249 
 
>  <excitation_energy_4> 
7.457 
 
>  <homo_energy> 
-7.527 
 
>  <homo_lumo_gap> 
8.509 
 
>  <logP> 
-0.262 
 
>  <lumo_energy> 
0.982 
 
>  <melting_point> 
118.0 
 
>  <molecular_refractivity> 
15.81 
 
>  <oscillator_strength_1> 
0.0064 
 
>  <oscillator_strength_2> 
0.0266 
 
>  <oscillator_strength_3> 
0.0586 
 
>  <oscillator_strength_4> 
0.019 
 
>  <open_babel_can_smiles> 
NP(=O)(O)O 
 
>  <mulliken_charges> 
9 
1   -0.820712 
2   -0.64494 
3   -0.651547 
4   -0.555102 
5   1.082415 
6   0.355284 
7   0.35949 
8   0.436443 
9   0.438669 
 
>  <lowdin_charges> 
9 
1   -0.697409 
2   -0.582576 
3   -0.582436 
4   -0.604298 
5   1.090586 
6   0.305042 
7   0.308012 
8   0.380516 
9   0.382565 
 
$$$$ 
 
