PCCDB-ID:  36744 
public computational chemistry database (PCCDB) project, http://pccdb.org 
 
 14 14  0  0  0  0  0  0  0  0999 V2000 
    0.9298    0.0841    0.1514 C   0  0  0  0  0  0  0  0  0  0  0  0 
    3.2429   -1.2091   -0.0945 C   0  0  0  0  0  0  0  0  0  0  0  0 
    4.6762   -0.6523   -0.2928 C   0  0  0  0  0  0  0  0  0  0  0  0 
    3.2473    1.0980   -0.1424 C   0  0  0  0  0  0  0  0  0  0  0  0 
    2.4142    0.0610   -0.0245 C   0  0  0  0  0  0  0  0  0  0  0  0 
    4.5744    0.7963   -0.2940 O   0  0  0  0  0  0  0  0  0  0  0  0 
    0.6238   -0.4112    1.0844 H   0  0  0  0  0  0  0  0  0  0  0  0 
    0.4159   -0.4432   -0.6651 H   0  0  0  0  0  0  0  0  0  0  0  0 
    0.5457    1.1095    0.1786 H   0  0  0  0  0  0  0  0  0  0  0  0 
    3.1552   -1.8086    0.8229 H   0  0  0  0  0  0  0  0  0  0  0  0 
    2.9346   -1.8603   -0.9245 H   0  0  0  0  0  0  0  0  0  0  0  0 
    5.1202   -0.9540   -1.2470 H   0  0  0  0  0  0  0  0  0  0  0  0 
    5.3602   -0.9357    0.5134 H   0  0  0  0  0  0  0  0  0  0  0  0 
    3.0322    2.1606   -0.1351 H   0  0  0  0  0  0  0  0  0  0  0  0 
  1  9  1  0  0  0  0 
  1  7  1  0  0  0  0 
  2  5  1  0  0  0  0 
  2 10  1  0  0  0  0 
  3  2  1  0  0  0  0 
  3 13  1  0  0  0  0 
  4 14  1  0  0  0  0 
  4  5  2  0  0  0  0 
  5  1  1  0  0  0  0 
  6  3  1  0  0  0  0 
  6  4  1  0  0  0  0 
  8  1  1  0  0  0  0 
 11  2  1  0  0  0  0 
 12  3  1  0  0  0  0 
M  END 
>  <HBA> 
1 
 
>  <HBD> 
0 
 
>  <TPSA> 
9.23 
 
>  <cid> 
36744 
 
>  <dipole> 
1.32 
 
>  <excitation_energy_1> 
4.985 
 
>  <excitation_energy_2> 
5.383 
 
>  <excitation_energy_3> 
5.464 
 
>  <excitation_energy_4> 
5.659 
 
>  <homo_energy> 
-5.317 
 
>  <homo_lumo_gap> 
6.574 
 
>  <logP> 
1.31 
 
>  <lumo_energy> 
1.257 
 
>  <melting_point> 
0.94 
 
>  <molecular_refractivity> 
24.65 
 
>  <oscillator_strength_1> 
0.001 
 
>  <oscillator_strength_2> 
0.0025 
 
>  <oscillator_strength_3> 
0.0978 
 
>  <oscillator_strength_4> 
0.0091 
 
>  <open_babel_can_smiles> 
CC1=COCC1 
 
>  <mulliken_charges> 
14 
1   -0.5149 
2   -0.354278 
3   -0.031877 
4   0.085534 
5   0.100797 
6   -0.472954 
7   0.150327 
8   0.15042 
9   0.153236 
10   0.147011 
11   0.14688 
12   0.149547 
13   0.149893 
14   0.140364 
 
>  <lowdin_charges> 
14 
1   -0.432649 
2   -0.286786 
3   -0.121969 
4   -0.064825 
5   -0.07984 
6   -0.22967 
7   0.152383 
8   0.153292 
9   0.156829 
10   0.148428 
11   0.149354 
12   0.147305 
13   0.148734 
14   0.159414 
 
$$$$ 
 
