PCCDB-ID:  72888 
public computational chemistry database (PCCDB) project, http://pccdb.org 
 
 34 35  0  0  0  0  0  0  0  0999 V2000 
    1.6243    0.1947   -0.0382 C   0  0  0  0  0  0  0  0  0  0  0  0 
    0.7623    0.8922    1.0239 C   0  0  0  0  0  0  0  0  0  0  0  0 
    3.2871    1.9214   -0.5193 C   0  0  0  0  0  0  0  0  0  0  0  0 
    3.9226   -0.3846   -0.5849 C   0  0  0  0  0  0  0  0  0  0  0  0 
   -1.5297    1.4834    1.5826 C   0  0  0  0  0  0  0  0  0  0  0  0 
   -0.9196   -0.8272    1.4590 C   0  0  0  0  0  0  0  0  0  0  0  0 
    4.7574    2.2908   -0.3321 C   0  0  0  0  0  0  0  0  0  0  0  0 
    5.3770    0.0393   -0.3910 C   0  0  0  0  0  0  0  0  0  0  0  0 
   -2.9887    1.0808    1.3783 C   0  0  0  0  0  0  0  0  0  0  0  0 
   -2.3942   -1.1750    1.2633 C   0  0  0  0  0  0  0  0  0  0  0  0 
    3.0301    0.5927    0.0420 N   0  0  0  0  0  0  0  0  0  0  0  0 
   -0.6476    0.5122    0.9317 N   0  0  0  0  0  0  0  0  0  0  0  0 
    5.6157    1.3312   -0.9324 O   0  0  0  0  0  0  0  0  0  0  0  0 
   -3.2419   -0.2213    1.8873 O   0  0  0  0  0  0  0  0  0  0  0  0 
    1.1869    0.3853   -1.0363 H   0  0  0  0  0  0  0  0  0  0  0  0 
    1.5873   -0.8891    0.1192 H   0  0  0  0  0  0  0  0  0  0  0  0 
    0.8137    1.9766    0.8755 H   0  0  0  0  0  0  0  0  0  0  0  0 
    1.1903    0.6888    2.0236 H   0  0  0  0  0  0  0  0  0  0  0  0 
    3.0379    1.9601   -1.5988 H   0  0  0  0  0  0  0  0  0  0  0  0 
    2.6652    2.6650   -0.0091 H   0  0  0  0  0  0  0  0  0  0  0  0 
    3.7630   -1.3641   -0.1177 H   0  0  0  0  0  0  0  0  0  0  0  0 
    3.7213   -0.4911   -1.6695 H   0  0  0  0  0  0  0  0  0  0  0  0 
   -1.3278    1.5605    2.6697 H   0  0  0  0  0  0  0  0  0  0  0  0 
   -1.3585    2.4725    1.1404 H   0  0  0  0  0  0  0  0  0  0  0  0 
   -0.3072   -1.5648    0.9290 H   0  0  0  0  0  0  0  0  0  0  0  0 
   -0.6700   -0.8962    2.5367 H   0  0  0  0  0  0  0  0  0  0  0  0 
    4.9788    2.3762    0.7447 H   0  0  0  0  0  0  0  0  0  0  0  0 
    4.9779    3.2482   -0.8138 H   0  0  0  0  0  0  0  0  0  0  0  0 
    6.0522   -0.6455   -0.9131 H   0  0  0  0  0  0  0  0  0  0  0  0 
    5.6211    0.0280    0.6841 H   0  0  0  0  0  0  0  0  0  0  0  0 
   -3.2324    1.1221    0.3037 H   0  0  0  0  0  0  0  0  0  0  0  0 
   -3.6563    1.7599    1.9175 H   0  0  0  0  0  0  0  0  0  0  0  0 
   -2.6255   -2.1418    1.7207 H   0  0  0  0  0  0  0  0  0  0  0  0 
   -2.6164   -1.2310    0.1847 H   0  0  0  0  0  0  0  0  0  0  0  0 
  1 11  1  0  0  0  0 
  1 16  1  0  0  0  0 
  1  2  1  0  0  0  0 
  2 18  1  0  0  0  0 
  3  7  1  0  0  0  0 
  3 20  1  0  0  0  0 
  3 11  1  0  0  0  0 
  4  8  1  0  0  0  0 
  4 21  1  0  0  0  0 
  4 11  1  0  0  0  0 
  5 23  1  0  0  0  0 
  6 26  1  0  0  0  0 
  7 27  1  0  0  0  0 
  8 30  1  0  0  0  0 
  9  5  1  0  0  0  0 
  9 14  1  0  0  0  0 
  9 32  1  0  0  0  0 
 10  6  1  0  0  0  0 
 10 33  1  0  0  0  0 
 10 14  1  0  0  0  0 
 12  2  1  0  0  0  0 
 12  6  1  0  0  0  0 
 12  5  1  0  0  0  0 
 13  8  1  0  0  0  0 
 13  7  1  0  0  0  0 
 15  1  1  0  0  0  0 
 17  2  1  0  0  0  0 
 19  3  1  0  0  0  0 
 22  4  1  0  0  0  0 
 24  5  1  0  0  0  0 
 25  6  1  0  0  0  0 
 28  7  1  0  0  0  0 
 29  8  1  0  0  0  0 
 31  9  1  0  0  0  0 
 34 10  1  0  0  0  0 
M  END 
>  <HBA> 
4 
 
>  <HBD> 
0 
 
>  <TPSA> 
24.94 
 
>  <cid> 
72888 
 
>  <dipole> 
0.01 
 
>  <excitation_energy_1> 
5.525 
 
>  <excitation_energy_2> 
5.61 
 
>  <excitation_energy_3> 
5.662 
 
>  <excitation_energy_4> 
5.75 
 
>  <homo_energy> 
-5.886 
 
>  <homo_lumo_gap> 
8.218 
 
>  <logP> 
-0.473 
 
>  <lumo_energy> 
2.332 
 
>  <melting_point> 
3.31 
 
>  <molecular_refractivity> 
61.75 
 
>  <oscillator_strength_1> 
0.0082 
 
>  <oscillator_strength_2> 
0.0 
 
>  <oscillator_strength_3> 
0.0 
 
>  <oscillator_strength_4> 
0.0324 
 
>  <open_babel_can_smiles> 
O1CCN(CC1)CCN1CCOCC1 
 
>  <mulliken_charges> 
34 
1   -0.114548 
2   -0.11343 
3   -0.1388 
4   -0.13174 
5   -0.131494 
6   -0.138712 
7   -0.0317 
8   -0.033246 
9   -0.033309 
10   -0.031879 
11   -0.407762 
12   -0.407657 
13   -0.467029 
14   -0.466848 
15   0.126252 
16   0.134251 
17   0.134283 
18   0.125587 
19   0.121015 
20   0.140589 
21   0.137891 
22   0.120533 
23   0.120476 
24   0.137764 
25   0.140763 
26   0.120757 
27   0.127986 
28   0.144085 
29   0.143939 
30   0.128029 
31   0.127989 
32   0.143941 
33   0.144057 
34   0.127966 
 
>  <lowdin_charges> 
34 
1   -0.201694 
2   -0.201578 
3   -0.216517 
4   -0.212963 
5   -0.212755 
6   -0.216739 
7   -0.134903 
8   -0.136625 
9   -0.136596 
10   -0.134813 
11   -0.193233 
12   -0.193362 
13   -0.273083 
14   -0.272976 
15   0.126384 
16   0.141164 
17   0.141171 
18   0.125944 
19   0.120825 
20   0.150117 
21   0.14772 
22   0.120673 
23   0.120574 
24   0.147569 
25   0.150265 
26   0.120806 
27   0.129363 
28   0.150938 
29   0.152682 
30   0.129414 
31   0.129414 
32   0.152721 
33   0.150808 
34   0.129285 
 
$$$$ 
 
