PCCDB-ID:  12417 
public computational chemistry database (PCCDB) project, http://pccdb.org 
 
 16 15  0  0  0  0  0  0  0  0999 V2000 
    0.9535   -0.0184    0.0850 C   0  0  0  0  0  0  0  0  0  0  0  0 
    2.9863   -1.3648   -0.6219 C   0  0  0  0  0  0  0  0  0  0  0  0 
    3.0508    1.1729   -0.6554 C   0  0  0  0  0  0  0  0  0  0  0  0 
    2.9761   -0.0272    1.5044 C   0  0  0  0  0  0  0  0  0  0  0  0 
    2.4973   -0.0808    0.0580 C   0  0  0  0  0  0  0  0  0  0  0  0 
    3.6433   -0.8709    2.0599 O   0  0  0  0  0  0  0  0  0  0  0  0 
    0.5620    0.0270   -0.9377 H   0  0  0  0  0  0  0  0  0  0  0  0 
    0.5955    0.8704    0.6190 H   0  0  0  0  0  0  0  0  0  0  0  0 
    0.5277   -0.9027    0.5726 H   0  0  0  0  0  0  0  0  0  0  0  0 
    2.6399   -1.4034   -1.6611 H   0  0  0  0  0  0  0  0  0  0  0  0 
    2.6137   -2.2521   -0.1005 H   0  0  0  0  0  0  0  0  0  0  0  0 
    4.0795   -1.4187   -0.6202 H   0  0  0  0  0  0  0  0  0  0  0  0 
    2.6662    1.2222   -1.6806 H   0  0  0  0  0  0  0  0  0  0  0  0 
    4.1454    1.1526   -0.7046 H   0  0  0  0  0  0  0  0  0  0  0  0 
    2.7503    2.0946   -0.1420 H   0  0  0  0  0  0  0  0  0  0  0  0 
    2.6546    0.8906    2.0536 H   0  0  0  0  0  0  0  0  0  0  0  0 
  1  9  1  0  0  0  0 
  1  8  1  0  0  0  0 
  2 12  1  0  0  0  0 
  2 11  1  0  0  0  0 
  2  5  1  0  0  0  0 
  3 15  1  0  0  0  0 
  3  5  1  0  0  0  0 
  4 16  1  0  0  0  0 
  4  6  2  0  0  0  0 
  5  1  1  0  0  0  0 
  5  4  1  0  0  0  0 
  7  1  1  0  0  0  0 
 10  2  1  0  0  0  0 
 13  3  1  0  0  0  0 
 14  3  1  0  0  0  0 
M  END 
>  <HBA> 
1 
 
>  <HBD> 
0 
 
>  <TPSA> 
17.07 
 
>  <cid> 
12417 
 
>  <dipole> 
2.64 
 
>  <excitation_energy_1> 
4.254 
 
>  <excitation_energy_2> 
6.349 
 
>  <excitation_energy_3> 
6.971 
 
>  <excitation_energy_4> 
7.082 
 
>  <homo_energy> 
-6.748 
 
>  <homo_lumo_gap> 
6.21 
 
>  <logP> 
1.231 
 
>  <lumo_energy> 
-0.539 
 
>  <melting_point> 
24.51 
 
>  <molecular_refractivity> 
26.09 
 
>  <oscillator_strength_1> 
0.0 
 
>  <oscillator_strength_2> 
0.0143 
 
>  <oscillator_strength_3> 
0.0252 
 
>  <oscillator_strength_4> 
0.017 
 
>  <open_babel_can_smiles> 
O=CC(C)(C)C 
 
>  <mulliken_charges> 
16 
1   -0.456722 
2   -0.437437 
3   -0.457055 
4   0.258204 
5   0.019691 
6   -0.387424 
7   0.154465 
8   0.146575 
9   0.157378 
10   0.136985 
11   0.155941 
12   0.155643 
13   0.154444 
14   0.157259 
15   0.146609 
16   0.095444 
 
>  <lowdin_charges> 
16 
1   -0.440575 
2   -0.4366 
3   -0.437398 
4   0.05425 
5   -0.021662 
6   -0.216643 
7   0.155616 
8   0.151489 
9   0.156613 
10   0.147337 
11   0.15858 
12   0.15593 
13   0.155428 
14   0.15383 
15   0.151152 
16   0.112652 
 
$$$$ 
 
