PCCDB-ID:  70493 
public computational chemistry database (PCCDB) project, http://pccdb.org 
 
 18 18  0  0  0  0  0  0  0  0999 V2000 
   -1.3450   -0.5926   -0.3107 C   0  0  0  0  0  0  0  0  0  0  0  0 
   -0.3069   -1.5000   -0.1146 C   0  0  0  0  0  0  0  0  0  0  0  0 
   -1.0510    0.7701   -0.3472 C   0  0  0  0  0  0  0  0  0  0  0  0 
    0.9898   -0.9975    0.0242 C   0  0  0  0  0  0  0  0  0  0  0  0 
    0.2785    1.1775   -0.1763 C   0  0  0  0  0  0  0  0  0  0  0  0 
    0.6870    2.6235   -0.2100 C   0  0  0  0  0  0  0  0  0  0  0  0 
    1.8794    3.0376   -0.4253 N   0  0  0  0  0  0  0  0  0  0  0  0 
   -0.0080    4.9090    0.1146 N   0  0  0  0  0  0  0  0  0  0  0  0 
    1.2839    0.3034   -0.0030 N   0  0  0  0  0  0  0  0  0  0  0  0 
   -0.3494    3.5370   -0.0269 N   0  0  0  0  0  0  0  0  0  0  0  0 
   -2.3671   -0.9370   -0.4426 H   0  0  0  0  0  0  0  0  0  0  0  0 
   -0.4880   -2.5699   -0.0803 H   0  0  0  0  0  0  0  0  0  0  0  0 
   -1.8292    1.5022   -0.5337 H   0  0  0  0  0  0  0  0  0  0  0  0 
    1.8312   -1.6741    0.1641 H   0  0  0  0  0  0  0  0  0  0  0  0 
    2.4867    2.2256   -0.5586 H   0  0  0  0  0  0  0  0  0  0  0  0 
    0.0102    5.2965   -0.8293 H   0  0  0  0  0  0  0  0  0  0  0  0 
    0.9701    4.9334    0.4206 H   0  0  0  0  0  0  0  0  0  0  0  0 
   -1.0319    3.2662    0.6720 H   0  0  0  0  0  0  0  0  0  0  0  0 
  1  2  1  0  0  0  0 
  2 12  1  0  0  0  0 
  2  4  2  0  0  0  0 
  3  1  2  0  0  0  0 
  3  5  1  0  0  0  0 
  4 14  1  0  0  0  0 
  5  9  2  0  0  0  0 
  6  5  1  0  0  0  0 
  6 10  1  0  0  0  0 
  7  6  2  0  0  0  0 
  8 17  1  0  0  0  0 
  9  4  1  0  0  0  0 
 10  8  1  0  0  0  0 
 10 18  1  0  0  0  0 
 11  1  1  0  0  0  0 
 13  3  1  0  0  0  0 
 15  7  1  0  0  0  0 
 16  8  1  0  0  0  0 
M  END 
>  <HBA> 
4 
 
>  <HBD> 
2 
 
>  <TPSA> 
77.29 
 
>  <cid> 
70493 
 
>  <dipole> 
3.99 
 
>  <excitation_energy_1> 
4.362 
 
>  <excitation_energy_2> 
4.67 
 
>  <excitation_energy_3> 
4.713 
 
>  <excitation_energy_4> 
4.761 
 
>  <homo_energy> 
-6.305 
 
>  <homo_lumo_gap> 
4.969 
 
>  <logP> 
1.061 
 
>  <lumo_energy> 
-1.336 
 
>  <melting_point> 
149.02 
 
>  <molecular_refractivity> 
38.3 
 
>  <oscillator_strength_1> 
0.0148 
 
>  <oscillator_strength_2> 
0.002 
 
>  <oscillator_strength_3> 
0.0103 
 
>  <oscillator_strength_4> 
0.0029 
 
>  <open_babel_can_smiles> 
NNC(=N)c1ccccn1 
 
>  <mulliken_charges> 
18 
1   -0.09991 
2   -0.141473 
3   -0.171972 
4   0.046484 
5   0.253877 
6   0.438856 
7   -0.652535 
8   -0.573227 
9   -0.485069 
10   -0.509441 
11   0.151255 
12   0.146725 
13   0.158092 
14   0.149728 
15   0.310758 
16   0.320764 
17   0.327484 
18   0.329603 
 
>  <lowdin_charges> 
18 
1   -0.121729 
2   -0.166771 
3   -0.176727 
4   -0.082541 
5   0.027494 
6   0.062637 
7   -0.421671 
8   -0.463349 
9   -0.144376 
10   -0.251793 
11   0.166577 
12   0.166778 
13   0.173888 
14   0.162173 
15   0.267664 
16   0.262555 
17   0.261906 
18   0.277283 
 
$$$$ 
 
