PCCDB-ID:  29398 
public computational chemistry database (PCCDB) project, http://pccdb.org 
 
 18 17  0  0  0  0  0  0  0  0999 V2000 
    5.5098    0.4546    0.7997 C   0  0  0  0  0  0  0  0  0  0  0  0 
    3.7932    1.6147   -2.5211 C   0  0  0  0  0  0  0  0  0  0  0  0 
    3.2789    3.3017    0.1305 C   0  0  0  0  0  0  0  0  0  0  0  0 
    2.5883    3.3097    1.4786 C   0  0  0  0  0  0  0  0  0  0  0  0 
    3.9468    1.9484   -0.1626 C   0  0  0  0  0  0  0  0  0  0  0  0 
    1.3841    3.3112    1.6189 O   0  0  0  0  0  0  0  0  0  0  0  0 
    4.8865    1.7336    0.8439 O   0  0  0  0  0  0  0  0  0  0  0  0 
    4.6066    1.9625   -1.4145 O   0  0  0  0  0  0  0  0  0  0  0  0 
    4.7622   -0.3510    0.8586 H   0  0  0  0  0  0  0  0  0  0  0  0 
    6.1648    0.3999    1.6717 H   0  0  0  0  0  0  0  0  0  0  0  0 
    6.1002    0.3310   -0.1140 H   0  0  0  0  0  0  0  0  0  0  0  0 
    4.4516    1.5702   -3.3918 H   0  0  0  0  0  0  0  0  0  0  0  0 
    3.0076    2.3602   -2.7123 H   0  0  0  0  0  0  0  0  0  0  0  0 
    3.3158    0.6326   -2.3814 H   0  0  0  0  0  0  0  0  0  0  0  0 
    4.0735    4.0574    0.1130 H   0  0  0  0  0  0  0  0  0  0  0  0 
    2.5408    3.5270   -0.6446 H   0  0  0  0  0  0  0  0  0  0  0  0 
    3.2664    3.2948    2.3566 H   0  0  0  0  0  0  0  0  0  0  0  0 
    3.1925    1.1375   -0.1675 H   0  0  0  0  0  0  0  0  0  0  0  0 
  1  7  1  0  0  0  0 
  1  9  1  0  0  0  0 
  1 10  1  0  0  0  0 
  2 14  1  0  0  0  0 
  2  8  1  0  0  0  0 
  3  4  1  0  0  0  0 
  4  6  2  0  0  0  0 
  4 17  1  0  0  0  0 
  5  3  1  0  0  0  0 
  5  7  1  0  0  0  0 
  8  5  1  0  0  0  0 
 11  1  1  0  0  0  0 
 12  2  1  0  0  0  0 
 13  2  1  0  0  0  0 
 15  3  1  0  0  0  0 
 16  3  1  0  0  0  0 
 18  5  1  0  0  0  0 
M  END 
>  <HBA> 
3 
 
>  <HBD> 
0 
 
>  <TPSA> 
35.53 
 
>  <cid> 
29398 
 
>  <dipole> 
2.75 
 
>  <excitation_energy_1> 
4.152 
 
>  <excitation_energy_2> 
5.812 
 
>  <excitation_energy_3> 
6.118 
 
>  <excitation_energy_4> 
6.536 
 
>  <homo_energy> 
-6.727 
 
>  <homo_lumo_gap> 
6.085 
 
>  <logP> 
0.194 
 
>  <lumo_energy> 
-0.642 
 
>  <melting_point> 
-12.07 
 
>  <molecular_refractivity> 
28.52 
 
>  <oscillator_strength_1> 
0.0004 
 
>  <oscillator_strength_2> 
0.0374 
 
>  <oscillator_strength_3> 
0.0081 
 
>  <oscillator_strength_4> 
0.0101 
 
>  <open_babel_can_smiles> 
COC(CC=O)OC 
 
>  <mulliken_charges> 
18 
1   -0.207447 
2   -0.210917 
3   -0.363788 
4   0.251351 
5   0.376925 
6   -0.387138 
7   -0.471545 
8   -0.46958 
9   0.133728 
10   0.163554 
11   0.163235 
12   0.167588 
13   0.143205 
14   0.139171 
15   0.173736 
16   0.164255 
17   0.124694 
18   0.108972 
 
>  <lowdin_charges> 
18 
1   -0.283454 
2   -0.2826 
3   -0.325794 
4   0.053639 
5   0.105068 
6   -0.218963 
7   -0.250343 
8   -0.266117 
9   0.136838 
10   0.159601 
11   0.150614 
12   0.161344 
13   0.137973 
14   0.136136 
15   0.174779 
16   0.166535 
17   0.128222 
18   0.11652 
 
$$$$ 
 
