PCCDB-ID:  21432 
public computational chemistry database (PCCDB) project, http://pccdb.org 
 
 30 29  0  0  1  0  0  0  0  0999 V2000 
    0.4420    0.3628    0.6719 C   0  0  0  0  0  0  0  0  0  0  0  0 
    7.1120   -0.2879    3.4073 C   0  0  0  0  0  0  0  0  0  0  0  0 
    7.3761    2.7951    2.6956 C   0  0  0  0  0  0  0  0  0  0  0  0 
    1.9469    0.1284    0.5065 C   0  0  0  0  0  0  0  0  0  0  0  0 
    7.2823    0.3405    2.0190 C   0  0  0  0  0  0  0  0  0  0  0  0 
    2.8050    1.0710    1.3600 C   0  0  0  0  0  0  0  0  0  0  0  0 
    4.3134    0.8473    1.1903 C   0  0  0  0  0  0  0  0  0  0  0  0 
    5.1533    1.7995    2.0522 C   0  0  0  0  0  0  0  0  0  0  0  0 
    6.6752    1.7480    1.8152 C   0  0  1  0  0  0  0  0  0  0  0  0 
    6.8484    2.1168    0.4325 O   0  0  0  0  0  0  0  0  0  0  0  0 
   -0.1421   -0.3249    0.0495 H   0  0  0  0  0  0  0  0  0  0  0  0 
    0.1664    1.3857    0.3865 H   0  0  0  0  0  0  0  0  0  0  0  0 
    0.1297    0.2159    1.7134 H   0  0  0  0  0  0  0  0  0  0  0  0 
    7.5996   -1.2685    3.4452 H   0  0  0  0  0  0  0  0  0  0  0  0 
    6.0560   -0.4375    3.6581 H   0  0  0  0  0  0  0  0  0  0  0  0 
    7.5572    0.3297    4.1952 H   0  0  0  0  0  0  0  0  0  0  0  0 
    7.2161    2.6114    3.7638 H   0  0  0  0  0  0  0  0  0  0  0  0 
    6.9971    3.7944    2.4582 H   0  0  0  0  0  0  0  0  0  0  0  0 
    8.4597    2.7908    2.5163 H   0  0  0  0  0  0  0  0  0  0  0  0 
    2.2227    0.2483   -0.5508 H   0  0  0  0  0  0  0  0  0  0  0  0 
    2.1856   -0.9132    0.7655 H   0  0  0  0  0  0  0  0  0  0  0  0 
    6.8543   -0.3227    1.2586 H   0  0  0  0  0  0  0  0  0  0  0  0 
    8.3575    0.4093    1.7911 H   0  0  0  0  0  0  0  0  0  0  0  0 
    2.5313    0.9487    2.4193 H   0  0  0  0  0  0  0  0  0  0  0  0 
    2.5610    2.1128    1.1037 H   0  0  0  0  0  0  0  0  0  0  0  0 
    4.5921    0.9833    0.1386 H   0  0  0  0  0  0  0  0  0  0  0  0 
    4.5481   -0.1965    1.4428 H   0  0  0  0  0  0  0  0  0  0  0  0 
    4.9549    1.6119    3.1159 H   0  0  0  0  0  0  0  0  0  0  0  0 
    4.8337    2.8317    1.8557 H   0  0  0  0  0  0  0  0  0  0  0  0 
    7.7986    2.0715    0.2390 H   0  0  0  0  0  0  0  0  0  0  0  0 
  1 13  1  0  0  0  0 
  2 14  1  0  0  0  0 
  2 15  1  0  0  0  0 
  2 16  1  0  0  0  0 
  3 17  1  0  0  0  0 
  4  1  1  0  0  0  0 
  4 21  1  0  0  0  0 
  4  6  1  0  0  0  0 
  5  2  1  0  0  0  0 
  6 24  1  0  0  0  0 
  7  6  1  0  0  0  0 
  7 27  1  0  0  0  0 
  7  8  1  0  0  0  0 
  8 28  1  0  0  0  0 
  9 10  1  6  0  0  0 
  9  5  1  0  0  0  0 
  9  8  1  0  0  0  0 
  9  3  1  0  0  0  0 
 11  1  1  0  0  0  0 
 12  1  1  0  0  0  0 
 18  3  1  0  0  0  0 
 19  3  1  0  0  0  0 
 20  4  1  0  0  0  0 
 22  5  1  0  0  0  0 
 23  5  1  0  0  0  0 
 25  6  1  0  0  0  0 
 26  7  1  0  0  0  0 
 29  8  1  0  0  0  0 
 30 10  1  0  0  0  0 
M  END 
>  <HBA> 
1 
 
>  <HBD> 
1 
 
>  <TPSA> 
20.23 
 
>  <cid> 
21432 
 
>  <dipole> 
1.49 
 
>  <excitation_energy_1> 
6.361 
 
>  <excitation_energy_2> 
7.029 
 
>  <excitation_energy_3> 
7.181 
 
>  <excitation_energy_4> 
7.391 
 
>  <homo_energy> 
-6.988 
 
>  <homo_lumo_gap> 
8.879 
 
>  <logP> 
2.728 
 
>  <lumo_energy> 
1.891 
 
>  <melting_point> 
1.09 
 
>  <molecular_refractivity> 
46.58 
 
>  <oscillator_strength_1> 
0.016 
 
>  <oscillator_strength_2> 
0.0114 
 
>  <oscillator_strength_3> 
0.0078 
 
>  <oscillator_strength_4> 
0.0042 
 
>  <open_babel_can_smiles> 
CCCCC[C@@](CC)(O)C 
 
>  <mulliken_charges> 
30 
1   -0.441015 
2   -0.456479 
3   -0.460742 
4   -0.246278 
5   -0.27397 
6   -0.248102 
7   -0.265548 
8   -0.262603 
9   0.312574 
10   -0.643114 
11   0.140164 
12   0.141089 
13   0.139472 
14   0.145763 
15   0.151317 
16   0.146571 
17   0.142778 
18   0.154254 
19   0.126322 
20   0.131698 
21   0.127649 
22   0.149815 
23   0.112845 
24   0.121616 
25   0.127845 
26   0.156221 
27   0.12472 
28   0.126783 
29   0.136775 
30   0.38158 
 
>  <lowdin_charges> 
30 
1   -0.44415 
2   -0.448483 
3   -0.453518 
4   -0.26915 
5   -0.289649 
6   -0.270832 
7   -0.276128 
8   -0.276519 
9   0.1211 
10   -0.463789 
11   0.14974 
12   0.145216 
13   0.144145 
14   0.152596 
15   0.148921 
16   0.149424 
17   0.149584 
18   0.156092 
19   0.140363 
20   0.138164 
21   0.136213 
22   0.151706 
23   0.132119 
24   0.132839 
25   0.136421 
26   0.151065 
27   0.134691 
28   0.139962 
29   0.146948 
30   0.334906 
 
$$$$ 
 
