PCCDB-ID:  29626 
public computational chemistry database (PCCDB) project, http://pccdb.org 
 
 25 24  0  0  0  0  0  0  0  0999 V2000 
    3.1619    1.9223   -0.4716 C   0  0  0  0  0  0  0  0  0  0  0  0 
    0.8220    1.3546    0.2957 C   0  0  0  0  0  0  0  0  0  0  0  0 
    3.7871   -4.4733   -3.9814 C   0  0  0  0  0  0  0  0  0  0  0  0 
    2.3326   -0.5009   -0.5012 C   0  0  0  0  0  0  0  0  0  0  0  0 
    3.7141   -1.1482   -0.4815 C   0  0  0  0  0  0  0  0  0  0  0  0 
    3.4738   -5.1116   -1.6635 C   0  0  0  0  0  0  0  0  0  0  0  0 
    2.2758    0.8668    0.2096 C   0  0  0  0  0  0  0  0  0  0  0  0 
    3.6771   -4.1284   -2.6886 C   0  0  0  0  0  0  0  0  0  0  0  0 
    3.7679   -2.6732   -2.3102 C   0  0  0  0  0  0  0  0  0  0  0  0 
    3.3073   -5.9225   -0.8472 N   0  0  0  0  0  0  0  0  0  0  0  0 
    3.9299   -1.7851   -3.1199 O   0  0  0  0  0  0  0  0  0  0  0  0 
    3.6521   -2.5097   -0.9854 O   0  0  0  0  0  0  0  0  0  0  0  0 
    3.0761    2.8884    0.0390 H   0  0  0  0  0  0  0  0  0  0  0  0 
    2.8608    2.0693   -1.5167 H   0  0  0  0  0  0  0  0  0  0  0  0 
    4.2216    1.6435   -0.4673 H   0  0  0  0  0  0  0  0  0  0  0  0 
    0.7581    2.3087    0.8314 H   0  0  0  0  0  0  0  0  0  0  0  0 
    0.1867    0.6310    0.8197 H   0  0  0  0  0  0  0  0  0  0  0  0 
    0.4001    1.5065   -0.7061 H   0  0  0  0  0  0  0  0  0  0  0  0 
    3.7300   -5.5067   -4.3050 H   0  0  0  0  0  0  0  0  0  0  0  0 
    3.9383   -3.6975   -4.7247 H   0  0  0  0  0  0  0  0  0  0  0  0 
    1.6292   -1.1904   -0.0169 H   0  0  0  0  0  0  0  0  0  0  0  0 
    2.0086   -0.3873   -1.5439 H   0  0  0  0  0  0  0  0  0  0  0  0 
    4.0878   -1.2605    0.5394 H   0  0  0  0  0  0  0  0  0  0  0  0 
    4.4395   -0.5936   -1.0797 H   0  0  0  0  0  0  0  0  0  0  0  0 
    2.6437    0.7257    1.2380 H   0  0  0  0  0  0  0  0  0  0  0  0 
  1 15  1  0  0  0  0 
  1 13  1  0  0  0  0 
  1  7  1  0  0  0  0 
  2 17  1  0  0  0  0 
  2 16  1  0  0  0  0 
  3  8  2  0  0  0  0 
  4  5  1  0  0  0  0 
  4 21  1  0  0  0  0 
  4  7  1  0  0  0  0 
  5 23  1  0  0  0  0 
  6 10  3  0  0  0  0 
  7  2  1  0  0  0  0 
  7 25  1  0  0  0  0 
  8  9  1  0  0  0  0 
  8  6  1  0  0  0  0 
  9 12  1  0  0  0  0 
 11  9  2  0  0  0  0 
 12  5  1  0  0  0  0 
 14  1  1  0  0  0  0 
 18  2  1  0  0  0  0 
 19  3  1  0  0  0  0 
 20  3  1  0  0  0  0 
 22  4  1  0  0  0  0 
 24  5  1  0  0  0  0 
M  END 
>  <HBA> 
3 
 
>  <HBD> 
0 
 
>  <TPSA> 
50.09 
 
>  <cid> 
29626 
 
>  <dipole> 
2.61 
 
>  <excitation_energy_1> 
4.498 
 
>  <excitation_energy_2> 
5.387 
 
>  <excitation_energy_3> 
5.602 
 
>  <excitation_energy_4> 
5.839 
 
>  <homo_energy> 
-7.962 
 
>  <homo_lumo_gap> 
5.755 
 
>  <logP> 
1.655 
 
>  <lumo_energy> 
-2.207 
 
>  <melting_point> 
0.61 
 
>  <molecular_refractivity> 
45.94 
 
>  <oscillator_strength_1> 
0.0001 
 
>  <oscillator_strength_2> 
0.0075 
 
>  <oscillator_strength_3> 
0.2603 
 
>  <oscillator_strength_4> 
0.0003 
 
>  <open_babel_can_smiles> 
CC(CCOC(=O)C(=C)C#N)C 
 
>  <mulliken_charges> 
25 
1   -0.447738 
2   -0.442517 
3   -0.319036 
4   -0.276881 
5   -0.056989 
6   0.286556 
7   -0.078167 
8   0.092344 
9   0.631653 
10   -0.472788 
11   -0.481086 
12   -0.468164 
13   0.145919 
14   0.14904 
15   0.144067 
16   0.144462 
17   0.144651 
18   0.143939 
19   0.190521 
20   0.202783 
21   0.149648 
22   0.155523 
23   0.161113 
24   0.176176 
25   0.124973 
 
>  <lowdin_charges> 
25 
1   -0.444577 
2   -0.443432 
3   -0.226543 
4   -0.288681 
5   -0.129413 
6   -0.009451 
7   -0.117933 
8   -0.046986 
9   0.203729 
10   -0.102962 
11   -0.262334 
12   -0.169193 
13   0.151481 
14   0.149719 
15   0.146533 
16   0.150404 
17   0.15129 
18   0.14786 
19   0.184962 
20   0.194568 
21   0.153532 
22   0.152413 
23   0.156646 
24   0.163167 
25   0.135199 
 
$$$$ 
 
