PCCDB-ID:  70652 
public computational chemistry database (PCCDB) project, http://pccdb.org 
 
 27 27  0  0  1  0  0  0  0  0999 V2000 
    0.8858   -0.2313    4.6956 C   0  0  0  0  0  0  0  0  0  0  0  0 
    2.6906   -1.7958    0.0537 C   0  0  0  0  0  0  0  0  0  0  0  0 
    4.5455   -1.9678    1.5681 C   0  0  0  0  0  0  0  0  0  0  0  0 
    2.7905   -3.1566   -0.2377 C   0  0  0  0  0  0  0  0  0  0  0  0 
    4.6599   -3.3260    1.2865 C   0  0  0  0  0  0  0  0  0  0  0  0 
    3.4216    0.3003    1.2760 C   0  0  0  0  0  0  0  0  0  0  0  0 
    3.5593   -1.1747    0.9592 C   0  0  0  0  0  0  0  0  0  0  0  0 
    3.7800   -3.9267    0.3803 C   0  0  0  0  0  0  0  0  0  0  0  0 
    2.4705    0.5989    2.4513 C   0  0  1  0  0  0  0  0  0  0  0  0 
    3.1168    0.2067    3.7918 C   0  0  0  0  0  0  0  0  0  0  0  0 
    2.2153    2.0499    2.5120 N   0  0  0  0  0  0  0  0  0  0  0  0 
    3.9373   -5.2649    0.1369 O   0  0  0  0  0  0  0  0  0  0  0  0 
    4.3085    0.1909    3.9767 O   0  0  0  0  0  0  0  0  0  0  0  0 
    2.2991   -0.0698    4.8460 O   0  0  0  0  0  0  0  0  0  0  0  0 
    0.6468   -1.1280    4.1142 H   0  0  0  0  0  0  0  0  0  0  0  0 
    0.4990   -0.3486    5.7093 H   0  0  0  0  0  0  0  0  0  0  0  0 
    0.4130    0.6426    4.2340 H   0  0  0  0  0  0  0  0  0  0  0  0 
    1.9236   -1.2066   -0.4457 H   0  0  0  0  0  0  0  0  0  0  0  0 
    5.2262   -1.5105    2.2794 H   0  0  0  0  0  0  0  0  0  0  0  0 
    2.1075   -3.6153   -0.9511 H   0  0  0  0  0  0  0  0  0  0  0  0 
    5.4261   -3.9345    1.7567 H   0  0  0  0  0  0  0  0  0  0  0  0 
    3.0229    0.8255    0.3978 H   0  0  0  0  0  0  0  0  0  0  0  0 
    4.3900    0.7498    1.5096 H   0  0  0  0  0  0  0  0  0  0  0  0 
    1.5562    0.0011    2.3041 H   0  0  0  0  0  0  0  0  0  0  0  0 
    1.6802    2.3318    1.6921 H   0  0  0  0  0  0  0  0  0  0  0  0 
    1.6554    2.2949    3.3268 H   0  0  0  0  0  0  0  0  0  0  0  0 
    3.2757   -5.5448   -0.5144 H   0  0  0  0  0  0  0  0  0  0  0  0 
  1 14  1  0  0  0  0 
  1 16  1  0  0  0  0 
  2  7  1  0  0  0  0 
  3 19  1  0  0  0  0 
  4  2  2  0  0  0  0 
  4  8  1  0  0  0  0 
  5  3  1  0  0  0  0 
  5 21  1  0  0  0  0 
  6 23  1  0  0  0  0 
  6  9  1  0  0  0  0 
  7  6  1  0  0  0  0 
  7  3  2  0  0  0  0 
  8  5  2  0  0  0  0 
  9 24  1  6  0  0  0 
  9 11  1  0  0  0  0 
  9 10  1  0  0  0  0 
 10 13  2  0  0  0  0 
 10 14  1  0  0  0  0 
 11 26  1  0  0  0  0 
 12  8  1  0  0  0  0 
 15  1  1  0  0  0  0 
 17  1  1  0  0  0  0 
 18  2  1  0  0  0  0 
 20  4  1  0  0  0  0 
 22  6  1  0  0  0  0 
 25 11  1  0  0  0  0 
 27 12  1  0  0  0  0 
M  END 
>  <HBA> 
4 
 
>  <HBD> 
2 
 
>  <TPSA> 
72.55 
 
>  <cid> 
70652 
 
>  <dipole> 
6.18 
 
>  <excitation_energy_1> 
4.814 
 
>  <excitation_energy_2> 
5.024 
 
>  <excitation_energy_3> 
5.087 
 
>  <excitation_energy_4> 
5.191 
 
>  <homo_energy> 
-5.84 
 
>  <homo_lumo_gap> 
5.725 
 
>  <logP> 
1.135 
 
>  <lumo_energy> 
-0.114 
 
>  <melting_point> 
112.82 
 
>  <molecular_refractivity> 
51.84 
 
>  <oscillator_strength_1> 
0.0107 
 
>  <oscillator_strength_2> 
0.0165 
 
>  <oscillator_strength_3> 
0.0011 
 
>  <oscillator_strength_4> 
0.0021 
 
>  <open_babel_can_smiles> 
COC(=O)[C@H](Cc1ccc(cc1)O)N 
 
>  <mulliken_charges> 
27 
1   -0.226648 
2   -0.191161 
3   -0.192511 
4   -0.194116 
5   -0.160266 
6   -0.341003 
7   0.145554 
8   0.349059 
9   -0.067848 
10   0.627466 
11   -0.718271 
12   -0.642953 
13   -0.439225 
14   -0.440851 
15   0.17097 
16   0.182253 
17   0.143876 
18   0.116691 
19   0.16441 
20   0.114679 
21   0.141771 
22   0.131398 
23   0.184405 
24   0.126321 
25   0.305057 
26   0.305452 
27   0.405488 
 
>  <lowdin_charges> 
27 
1   -0.281293 
2   -0.161462 
3   -0.150612 
4   -0.218587 
5   -0.186064 
6   -0.271914 
7   -0.031365 
8   0.102248 
9   -0.097211 
10   0.197897 
11   -0.54503 
12   -0.382353 
13   -0.228219 
14   -0.18937 
15   0.155533 
16   0.168626 
17   0.14242 
18   0.152365 
19   0.174888 
20   0.152375 
21   0.169458 
22   0.148334 
23   0.173334 
24   0.130494 
25   0.260252 
26   0.257988 
27   0.357266 
 
$$$$ 
 
