PCCDB-ID:  33001 
public computational chemistry database (PCCDB) project, http://pccdb.org 
 
 23 22  0  0  0  0  0  0  0  0999 V2000 
    0.6626   -3.3761   -0.2989 C   0  0  0  0  0  0  0  0  0  0  0  0 
    1.9580   -2.5603   -0.3454 C   0  0  0  0  0  0  0  0  0  0  0  0 
    2.7866   -2.6793    0.9489 C   0  0  0  0  0  0  0  0  0  0  0  0 
    4.0377   -1.8447    0.9285 C   0  0  0  0  0  0  0  0  0  0  0  0 
    5.2854   -2.3172    1.0080 C   0  0  0  0  0  0  0  0  0  0  0  0 
    6.5399   -1.4853    0.9600 C   0  0  0  0  0  0  0  0  0  0  0  0 
    7.4388   -1.6356    2.2126 C   0  0  0  0  0  0  0  0  0  0  0  0 
    6.8246   -1.0432    3.4620 C   0  0  0  0  0  0  0  0  0  0  0  0 
    7.4120   -0.3157    4.2335 O   0  0  0  0  0  0  0  0  0  0  0  0 
    0.0945   -3.2747   -1.2304 H   0  0  0  0  0  0  0  0  0  0  0  0 
    0.0159   -3.0474    0.5241 H   0  0  0  0  0  0  0  0  0  0  0  0 
    0.8708   -4.4427   -0.1498 H   0  0  0  0  0  0  0  0  0  0  0  0 
    1.7206   -1.5027   -0.5263 H   0  0  0  0  0  0  0  0  0  0  0  0 
    2.5739   -2.8858   -1.1941 H   0  0  0  0  0  0  0  0  0  0  0  0 
    3.0457   -3.7323    1.1234 H   0  0  0  0  0  0  0  0  0  0  0  0 
    2.1543   -2.3698    1.7957 H   0  0  0  0  0  0  0  0  0  0  0  0 
    3.8904   -0.7672    0.8214 H   0  0  0  0  0  0  0  0  0  0  0  0 
    5.4345   -3.3948    1.1136 H   0  0  0  0  0  0  0  0  0  0  0  0 
    6.2848   -0.4281    0.8124 H   0  0  0  0  0  0  0  0  0  0  0  0 
    7.1420   -1.7820    0.0894 H   0  0  0  0  0  0  0  0  0  0  0  0 
    8.4179   -1.1701    2.0603 H   0  0  0  0  0  0  0  0  0  0  0  0 
    7.6081   -2.7074    2.4031 H   0  0  0  0  0  0  0  0  0  0  0  0 
    5.7629   -1.3220    3.6427 H   0  0  0  0  0  0  0  0  0  0  0  0 
  1 12  1  0  0  0  0 
  1 11  1  0  0  0  0 
  2  1  1  0  0  0  0 
  2  3  1  0  0  0  0 
  3 15  1  0  0  0  0 
  3 16  1  0  0  0  0 
  4  3  1  0  0  0  0 
  4  5  2  0  0  0  0 
  5 18  1  0  0  0  0 
  6  5  1  0  0  0  0 
  6  7  1  0  0  0  0 
  7 22  1  0  0  0  0 
  7  8  1  0  0  0  0 
  8 23  1  0  0  0  0 
  8  9  2  0  0  0  0 
 10  1  1  0  0  0  0 
 13  2  1  0  0  0  0 
 14  2  1  0  0  0  0 
 17  4  1  0  0  0  0 
 19  6  1  0  0  0  0 
 20  6  1  0  0  0  0 
 21  7  1  0  0  0  0 
M  END 
>  <HBA> 
1 
 
>  <HBD> 
0 
 
>  <TPSA> 
17.07 
 
>  <cid> 
33001 
 
>  <dipole> 
3.07 
 
>  <excitation_energy_1> 
4.098 
 
>  <excitation_energy_2> 
5.309 
 
>  <excitation_energy_3> 
6.045 
 
>  <excitation_energy_4> 
6.238 
 
>  <homo_energy> 
-6.444 
 
>  <homo_lumo_gap> 
5.889 
 
>  <logP> 
2.322 
 
>  <lumo_energy> 
-0.555 
 
>  <melting_point> 
13.62 
 
>  <molecular_refractivity> 
40.3 
 
>  <oscillator_strength_1> 
0.0014 
 
>  <oscillator_strength_2> 
0.0136 
 
>  <oscillator_strength_3> 
0.0799 
 
>  <oscillator_strength_4> 
0.0045 
 
>  <open_babel_can_smiles> 
CCC/C=C/CCC=O 
 
>  <mulliken_charges> 
23 
1   -0.442133 
2   -0.247813 
3   -0.297939 
4   -0.089627 
5   -0.102914 
6   -0.316446 
7   -0.341218 
8   0.259946 
9   -0.388918 
10   0.145513 
11   0.143296 
12   0.143196 
13   0.133853 
14   0.139478 
15   0.136037 
16   0.141116 
17   0.120258 
18   0.118281 
19   0.152113 
20   0.156281 
21   0.165727 
22   0.161561 
23   0.110354 
 
>  <lowdin_charges> 
23 
1   -0.443965 
2   -0.270152 
3   -0.270714 
4   -0.159997 
5   -0.177989 
6   -0.267939 
7   -0.30809 
8   0.056437 
9   -0.219915 
10   0.151563 
11   0.148085 
12   0.145724 
13   0.139215 
14   0.144219 
15   0.143309 
16   0.148428 
17   0.145083 
18   0.143898 
19   0.15019 
20   0.158539 
21   0.163189 
22   0.162642 
23   0.118239 
 
$$$$ 
 
