PCCDB-ID:  39325 
public computational chemistry database (PCCDB) project, http://pccdb.org 
 
 31 32  0  0  1  0  0  0  0  0999 V2000 
    3.2471   -0.6811    1.0171 C   0  0  0  0  0  0  0  0  0  0  0  0 
    4.1571    0.5835   -8.6906 C   0  0  0  0  0  0  0  0  0  0  0  0 
    5.0023   -0.4257   -8.2186 C   0  0  0  0  0  0  0  0  0  0  0  0 
    3.2609    1.2059   -7.8204 C   0  0  0  0  0  0  0  0  0  0  0  0 
    3.4678    2.4033   -2.3672 C   0  0  0  0  0  0  0  0  0  0  0  0 
    4.9499   -0.8089   -6.8822 C   0  0  0  0  0  0  0  0  0  0  0  0 
    3.2209    0.8367   -6.4755 C   0  0  0  0  0  0  0  0  0  0  0  0 
    2.8948    1.8059   -1.2454 C   0  0  0  0  0  0  0  0  0  0  0  0 
    3.8214    1.6319   -3.4745 C   0  0  0  0  0  0  0  0  0  0  0  0 
    3.0539   -0.3465   -2.3155 C   0  0  0  0  0  0  0  0  0  0  0  0 
    1.1175    0.5457    0.7159 C   0  0  0  0  0  0  0  0  0  0  0  0 
    2.1248   -0.2780    0.0275 C   0  0  1  0  0  0  0  0  0  0  0  0 
    4.0710   -0.1704   -5.9920 C   0  0  0  0  0  0  0  0  0  0  0  0 
    2.6851    0.4205   -1.2112 C   0  0  0  0  0  0  0  0  0  0  0  0 
    3.6098    0.2458   -3.4588 C   0  0  0  0  0  0  0  0  0  0  0  0 
    4.0286   -0.6656   -4.5779 C   0  0  0  0  0  0  0  0  0  0  0  0 
    0.3404    1.2017    1.2760 N   0  0  0  0  0  0  0  0  0  0  0  0 
    4.3398   -1.8246   -4.3256 O   0  0  0  0  0  0  0  0  0  0  0  0 
    2.8325   -1.2094    1.8811 H   0  0  0  0  0  0  0  0  0  0  0  0 
    3.7833    0.2037    1.3724 H   0  0  0  0  0  0  0  0  0  0  0  0 
    3.9600   -1.3373    0.5094 H   0  0  0  0  0  0  0  0  0  0  0  0 
    4.1933    0.8787   -9.7358 H   0  0  0  0  0  0  0  0  0  0  0  0 
    5.6949   -0.9168   -8.8966 H   0  0  0  0  0  0  0  0  0  0  0  0 
    2.5905    1.9777   -8.1883 H   0  0  0  0  0  0  0  0  0  0  0  0 
    3.6362    3.4764   -2.3790 H   0  0  0  0  0  0  0  0  0  0  0  0 
    5.5829   -1.6043   -6.5023 H   0  0  0  0  0  0  0  0  0  0  0  0 
    2.5083    1.3119   -5.8090 H   0  0  0  0  0  0  0  0  0  0  0  0 
    2.6011    2.4176   -0.3965 H   0  0  0  0  0  0  0  0  0  0  0  0 
    4.2789    2.1035   -4.3379 H   0  0  0  0  0  0  0  0  0  0  0  0 
    2.9203   -1.4247   -2.3126 H   0  0  0  0  0  0  0  0  0  0  0  0 
    1.6144   -1.1934   -0.2984 H   0  0  0  0  0  0  0  0  0  0  0  0 
  1 20  1  0  0  0  0 
  1 19  1  0  0  0  0 
  2  3  2  0  0  0  0 
  2  4  1  0  0  0  0 
  3  6  1  0  0  0  0 
  4  7  2  0  0  0  0 
  5  8  2  0  0  0  0 
  6 26  1  0  0  0  0 
  6 13  2  0  0  0  0 
  7 13  1  0  0  0  0 
  7 27  1  0  0  0  0 
  8 14  1  0  0  0  0 
  8 28  1  0  0  0  0 
  9 15  2  0  0  0  0 
  9  5  1  0  0  0  0 
 10 30  1  0  0  0  0 
 10 14  2  0  0  0  0 
 11 17  3  0  0  0  0 
 12 31  1  6  0  0  0 
 12 11  1  0  0  0  0 
 12  1  1  0  0  0  0 
 13 16  1  0  0  0  0 
 14 12  1  0  0  0  0 
 15 10  1  0  0  0  0 
 16 18  2  0  0  0  0 
 16 15  1  0  0  0  0 
 21  1  1  0  0  0  0 
 22  2  1  0  0  0  0 
 23  3  1  0  0  0  0 
 24  4  1  0  0  0  0 
 25  5  1  0  0  0  0 
 29  9  1  0  0  0  0 
M  END 
>  <HBA> 
2 
 
>  <HBD> 
0 
 
>  <TPSA> 
40.86 
 
>  <cid> 
39325 
 
>  <dipole> 
3.57 
 
>  <excitation_energy_1> 
3.57 
 
>  <excitation_energy_2> 
4.431 
 
>  <excitation_energy_3> 
4.514 
 
>  <excitation_energy_4> 
4.618 
 
>  <homo_energy> 
-6.836 
 
>  <homo_lumo_gap> 
4.904 
 
>  <logP> 
3.545 
 
>  <lumo_energy> 
-1.932 
 
>  <melting_point> 
101.16 
 
>  <molecular_refractivity> 
70.65 
 
>  <oscillator_strength_1> 
0.001 
 
>  <oscillator_strength_2> 
0.0196 
 
>  <oscillator_strength_3> 
0.0077 
 
>  <oscillator_strength_4> 
0.3141 
 
>  <open_babel_can_smiles> 
N#C[C@@H](c1cccc(c1)C(=O)c1ccccc1)C 
 
>  <mulliken_charges> 
31 
1   -0.434073 
2   -0.118356 
3   -0.135115 
4   -0.136896 
5   -0.14018 
6   -0.149822 
7   -0.176655 
8   -0.161719 
9   -0.174045 
10   -0.20945 
11   0.351576 
12   -0.243916 
13   0.071311 
14   0.156556 
15   0.073834 
16   0.321558 
17   -0.475984 
18   -0.464401 
19   0.169936 
20   0.169742 
21   0.171207 
22   0.139402 
23   0.14009 
24   0.138953 
25   0.144323 
26   0.160448 
27   0.150346 
28   0.158318 
29   0.153164 
30   0.156635 
31   0.193212 
 
>  <lowdin_charges> 
31 
1   -0.431137 
2   -0.138328 
3   -0.155478 
4   -0.157591 
5   -0.149163 
6   -0.129324 
7   -0.152855 
8   -0.146742 
9   -0.150598 
10   -0.137774 
11   -0.014379 
12   -0.121315 
13   -0.043902 
14   -0.002355 
15   -0.038374 
16   0.154958 
17   -0.128364 
18   -0.245092 
19   0.164852 
20   0.164335 
21   0.16641 
22   0.160982 
23   0.164071 
24   0.162927 
25   0.163186 
26   0.175838 
27   0.168583 
28   0.172854 
29   0.170242 
30   0.171232 
31   0.182305 
 
$$$$ 
 
