PCCDB-ID:  36151 
public computational chemistry database (PCCDB) project, http://pccdb.org 
 
 31 31  0  0  1  0  0  0  0  0999 V2000 
    1.9925    1.0926    0.3564 C   0  0  0  0  0  0  0  0  0  0  0  0 
    3.2227   -2.4941    0.9276 C   0  0  0  0  0  0  0  0  0  0  0  0 
    5.2081    0.8273    1.6947 C   0  0  0  0  0  0  0  0  0  0  0  0 
    3.0384    0.5348    0.5817 C   0  0  0  0  0  0  0  0  0  0  0  0 
    4.0174   -1.4411    1.7025 C   0  0  0  0  0  0  0  0  0  0  0  0 
    5.5378    0.3825   -5.5713 C   0  0  0  0  0  0  0  0  0  0  0  0 
    4.5532    0.1678   -4.6056 C   0  0  0  0  0  0  0  0  0  0  0  0 
    6.8747    0.1388   -5.2476 C   0  0  0  0  0  0  0  0  0  0  0  0 
    4.8872   -0.2749   -3.3255 C   0  0  0  0  0  0  0  0  0  0  0  0 
    7.2158   -0.3110   -3.9756 C   0  0  0  0  0  0  0  0  0  0  0  0 
    6.2332   -0.5148   -2.9897 C   0  0  0  0  0  0  0  0  0  0  0  0 
    6.1022   -0.9362   -0.6360 C   0  0  0  0  0  0  0  0  0  0  0  0 
    4.3029   -0.1406    0.9148 C   0  0  2  0  0  0  0  0  0  0  0  0 
    6.7052   -0.9927   -1.7547 N   0  0  0  0  0  0  0  0  0  0  0  0 
    6.7112   -1.4487    0.4645 O   0  0  0  0  0  0  0  0  0  0  0  0 
    4.8828   -0.4244   -0.4157 O   0  0  0  0  0  0  0  0  0  0  0  0 
    1.0732    1.5912    0.1465 H   0  0  0  0  0  0  0  0  0  0  0  0 
    3.0195   -3.3589    1.5682 H   0  0  0  0  0  0  0  0  0  0  0  0 
    3.7763   -2.8487    0.0525 H   0  0  0  0  0  0  0  0  0  0  0  0 
    2.2638   -2.0946    0.5818 H   0  0  0  0  0  0  0  0  0  0  0  0 
    4.6942    1.1519    2.6046 H   0  0  0  0  0  0  0  0  0  0  0  0 
    5.4210    1.7114    1.0872 H   0  0  0  0  0  0  0  0  0  0  0  0 
    6.1444    0.3395    1.9709 H   0  0  0  0  0  0  0  0  0  0  0  0 
    4.9720   -1.8544    2.0371 H   0  0  0  0  0  0  0  0  0  0  0  0 
    3.4615   -1.1398    2.5990 H   0  0  0  0  0  0  0  0  0  0  0  0 
    5.2666    0.7309   -6.5642 H   0  0  0  0  0  0  0  0  0  0  0  0 
    3.5082    0.3460   -4.8477 H   0  0  0  0  0  0  0  0  0  0  0  0 
    7.6538    0.2961   -5.9894 H   0  0  0  0  0  0  0  0  0  0  0  0 
    4.1086   -0.4341   -2.5908 H   0  0  0  0  0  0  0  0  0  0  0  0 
    8.2500   -0.5143   -3.7138 H   0  0  0  0  0  0  0  0  0  0  0  0 
    7.5722   -1.7658    0.1358 H   0  0  0  0  0  0  0  0  0  0  0  0 
  1  4  3  0  0  0  0 
  2 18  1  0  0  0  0 
  2  5  1  0  0  0  0 
  3 23  1  0  0  0  0 
  3 21  1  0  0  0  0 
  5 24  1  0  0  0  0 
  5 25  1  0  0  0  0 
  6  8  2  0  0  0  0 
  6  7  1  0  0  0  0 
  7  9  2  0  0  0  0 
  8 10  1  0  0  0  0 
  9 11  1  0  0  0  0 
  9 29  1  0  0  0  0 
 10 30  1  0  0  0  0 
 10 11  2  0  0  0  0 
 11 14  1  0  0  0  0 
 12 16  1  0  0  0  0 
 12 15  1  0  0  0  0 
 13  4  1  6  0  0  0 
 13  3  1  0  0  0  0 
 13  5  1  0  0  0  0 
 14 12  2  0  0  0  0 
 16 13  1  0  0  0  0 
 17  1  1  0  0  0  0 
 19  2  1  0  0  0  0 
 20  2  1  0  0  0  0 
 22  3  1  0  0  0  0 
 26  6  1  0  0  0  0 
 27  7  1  0  0  0  0 
 28  8  1  0  0  0  0 
 31 15  1  0  0  0  0 
M  END 
>  <HBA> 
3 
 
>  <HBD> 
1 
 
>  <TPSA> 
38.33 
 
>  <cid> 
36151 
 
>  <dipole> 
2.75 
 
>  <excitation_energy_1> 
4.889 
 
>  <excitation_energy_2> 
5.012 
 
>  <excitation_energy_3> 
5.092 
 
>  <excitation_energy_4> 
5.347 
 
>  <homo_energy> 
-5.57 
 
>  <homo_lumo_gap> 
5.467 
 
>  <logP> 
3.11 
 
>  <lumo_energy> 
-0.103 
 
>  <melting_point> 
85.03 
 
>  <molecular_refractivity> 
64.46 
 
>  <oscillator_strength_1> 
0.0739 
 
>  <oscillator_strength_2> 
0.2443 
 
>  <oscillator_strength_3> 
0.1104 
 
>  <oscillator_strength_4> 
0.0108 
 
>  <open_babel_can_smiles> 
CC[C@@](O/C(=N\c1ccccc1)/O)(C#C)C 
 
>  <mulliken_charges> 
31 
1   -0.530625 
2   -0.454867 
3   -0.472513 
4   0.368835 
5   -0.274152 
6   -0.129262 
7   -0.144503 
8   -0.135164 
9   -0.156267 
10   -0.155862 
11   0.267396 
12   0.756723 
13   0.206961 
14   -0.591151 
15   -0.604121 
16   -0.517827 
17   0.200633 
18   0.147464 
19   0.159319 
20   0.160483 
21   0.162813 
22   0.172143 
23   0.178317 
24   0.170427 
25   0.148284 
26   0.120696 
27   0.122748 
28   0.122601 
29   0.152608 
30   0.123497 
31   0.424368 
 
>  <lowdin_charges> 
31 
1   -0.23343 
2   -0.448452 
3   -0.448532 
4   -0.036628 
5   -0.28043 
6   -0.168896 
7   -0.155177 
8   -0.159895 
9   -0.185148 
10   -0.166382 
11   0.049688 
12   0.20576 
13   0.156055 
14   -0.241809 
15   -0.364653 
16   -0.182973 
17   0.209617 
18   0.155038 
19   0.156349 
20   0.157934 
21   0.166507 
22   0.168059 
23   0.168048 
24   0.161757 
25   0.156514 
26   0.153226 
27   0.152741 
28   0.155585 
29   0.169934 
30   0.157856 
31   0.371737 
 
$$$$ 
 
