PCCDB-ID:  10369 
public computational chemistry database (PCCDB) project, http://pccdb.org 
 
 28 28  0  0  1  0  0  0  0  0999 V2000 
    2.0482    0.4297    1.7301 C   0  0  0  0  0  0  0  0  0  0  0  0 
    3.1655    0.8823   -0.5003 C   0  0  0  0  0  0  0  0  0  0  0  0 
    3.3252   -4.5368    2.0584 C   0  0  0  0  0  0  0  0  0  0  0  0 
    2.8282   -3.9435   -0.3692 C   0  0  0  0  0  0  0  0  0  0  0  0 
    4.9043   -3.0444    0.7122 C   0  0  0  0  0  0  0  0  0  0  0  0 
    2.3131   -2.5251   -0.3129 C   0  0  0  0  0  0  0  0  0  0  0  0 
    4.2067   -1.7274    1.0879 C   0  0  0  0  0  0  0  0  0  0  0  0 
    2.3098   -0.1115    0.3113 C   0  0  0  0  0  0  0  0  0  0  0  0 
    3.9247   -4.2321    0.6764 C   0  0  1  0  0  0  0  0  0  0  0  0 
    2.9123   -1.5096    0.3263 C   0  0  0  0  0  0  0  0  0  0  0  0 
    1.5352    1.3978    1.6845 H   0  0  0  0  0  0  0  0  0  0  0  0 
    2.9829    0.5802    2.2835 H   0  0  0  0  0  0  0  0  0  0  0  0 
    1.4214   -0.2590    2.3081 H   0  0  0  0  0  0  0  0  0  0  0  0 
    2.6676    1.8576   -0.5616 H   0  0  0  0  0  0  0  0  0  0  0  0 
    3.3292    0.5188   -1.5207 H   0  0  0  0  0  0  0  0  0  0  0  0 
    4.1467    1.0452   -0.0386 H   0  0  0  0  0  0  0  0  0  0  0  0 
    2.7084   -5.4427    2.0227 H   0  0  0  0  0  0  0  0  0  0  0  0 
    2.6864   -3.7196    2.4114 H   0  0  0  0  0  0  0  0  0  0  0  0 
    4.1121   -4.6981    2.8055 H   0  0  0  0  0  0  0  0  0  0  0  0 
    3.2178   -4.1432   -1.3804 H   0  0  0  0  0  0  0  0  0  0  0  0 
    1.9914   -4.6449   -0.2382 H   0  0  0  0  0  0  0  0  0  0  0  0 
    5.7229   -3.2464    1.4153 H   0  0  0  0  0  0  0  0  0  0  0  0 
    5.3608   -2.9350   -0.2812 H   0  0  0  0  0  0  0  0  0  0  0  0 
    1.3849   -2.3304   -0.8520 H   0  0  0  0  0  0  0  0  0  0  0  0 
    4.8949   -0.8895    0.9136 H   0  0  0  0  0  0  0  0  0  0  0  0 
    4.0006   -1.7088    2.1689 H   0  0  0  0  0  0  0  0  0  0  0  0 
    1.3373   -0.1883   -0.1947 H   0  0  0  0  0  0  0  0  0  0  0  0 
    4.4813   -5.1231    0.3540 H   0  0  0  0  0  0  0  0  0  0  0  0 
  1 12  1  0  0  0  0 
  1 13  1  0  0  0  0 
  2 16  1  0  0  0  0 
  2  8  1  0  0  0  0 
  3 18  1  0  0  0  0 
  3 19  1  0  0  0  0 
  4  6  1  0  0  0  0 
  4 21  1  0  0  0  0 
  4  9  1  0  0  0  0 
  5  7  1  0  0  0  0 
  5 22  1  0  0  0  0 
  6 10  2  0  0  0  0 
  7 26  1  0  0  0  0 
  8 10  1  0  0  0  0 
  8  1  1  0  0  0  0 
  9 28  1  6  0  0  0 
  9  5  1  0  0  0  0 
  9  3  1  0  0  0  0 
 10  7  1  0  0  0  0 
 11  1  1  0  0  0  0 
 14  2  1  0  0  0  0 
 15  2  1  0  0  0  0 
 17  3  1  0  0  0  0 
 20  4  1  0  0  0  0 
 23  5  1  0  0  0  0 
 24  6  1  0  0  0  0 
 25  7  1  0  0  0  0 
 27  8  1  0  0  0  0 
M  END 
>  <HBA> 
0 
 
>  <HBD> 
0 
 
>  <TPSA> 
0.0 
 
>  <cid> 
10369 
 
>  <dipole> 
0.14 
 
>  <excitation_energy_1> 
5.518 
 
>  <excitation_energy_2> 
5.973 
 
>  <excitation_energy_3> 
6.08 
 
>  <excitation_energy_4> 
6.173 
 
>  <homo_energy> 
-6.101 
 
>  <homo_lumo_gap> 
7.078 
 
>  <logP> 
3.389 
 
>  <lumo_energy> 
0.977 
 
>  <melting_point> 
6.57 
 
>  <molecular_refractivity> 
47.6 
 
>  <oscillator_strength_1> 
0.006 
 
>  <oscillator_strength_2> 
0.0094 
 
>  <oscillator_strength_3> 
0.0042 
 
>  <oscillator_strength_4> 
0.0118 
 
>  <open_babel_can_smiles> 
C[C@@H]1CCC(=CC1)C(C)C 
 
>  <mulliken_charges> 
28 
1   -0.446725 
2   -0.443403 
3   -0.44883 
4   -0.293129 
5   -0.265174 
6   -0.193285 
7   -0.344567 
8   -0.1448 
9   -0.077345 
10   0.204552 
11   0.140248 
12   0.142743 
13   0.145444 
14   0.139807 
15   0.146066 
16   0.140911 
17   0.138834 
18   0.15066 
19   0.13711 
20   0.139629 
21   0.134044 
22   0.12532 
23   0.132625 
24   0.109832 
25   0.139612 
26   0.147327 
27   0.125032 
28   0.117462 
 
>  <lowdin_charges> 
28 
1   -0.447036 
2   -0.443188 
3   -0.449971 
4   -0.277249 
5   -0.274874 
6   -0.195893 
7   -0.280633 
8   -0.116666 
9   -0.124155 
10   -0.020994 
11   0.148228 
12   0.146792 
13   0.151509 
14   0.147668 
15   0.149973 
16   0.144785 
17   0.147754 
18   0.152017 
19   0.146815 
20   0.146681 
21   0.146672 
22   0.141492 
23   0.141489 
24   0.144925 
25   0.14886 
26   0.146358 
27   0.140494 
28   0.13815 
 
$$$$ 
 
