PCCDB-ID:  7766 
public computational chemistry database (PCCDB) project, http://pccdb.org 
 
 18 17  0  0  0  0  0  0  0  0999 V2000 
    2.8405   -1.4360   -2.2232 C   0  0  0  0  0  0  0  0  0  0  0  0 
    5.6194    3.6009    0.1640 C   0  0  0  0  0  0  0  0  0  0  0  0 
    2.3783   -0.4234   -1.1872 C   0  0  0  0  0  0  0  0  0  0  0  0 
    5.5886    3.0354   -1.2472 C   0  0  0  0  0  0  0  0  0  0  0  0 
    4.0533    1.2422   -1.1608 C   0  0  0  0  0  0  0  0  0  0  0  0 
    4.8323    0.5297   -0.5613 O   0  0  0  0  0  0  0  0  0  0  0  0 
    2.8050    0.9169   -1.5287 O   0  0  0  0  0  0  0  0  0  0  0  0 
    4.2857    2.4968   -1.5747 O   0  0  0  0  0  0  0  0  0  0  0  0 
    2.4358   -2.4256   -1.9816 H   0  0  0  0  0  0  0  0  0  0  0  0 
    3.9319   -1.5048   -2.2326 H   0  0  0  0  0  0  0  0  0  0  0  0 
    2.4921   -1.1559   -3.2227 H   0  0  0  0  0  0  0  0  0  0  0  0 
    6.5920    4.0690    0.3551 H   0  0  0  0  0  0  0  0  0  0  0  0 
    5.4711    2.8055    0.8997 H   0  0  0  0  0  0  0  0  0  0  0  0 
    4.8404    4.3588    0.2961 H   0  0  0  0  0  0  0  0  0  0  0  0 
    2.7553   -0.6715   -0.1919 H   0  0  0  0  0  0  0  0  0  0  0  0 
    1.2884   -0.3521   -1.1542 H   0  0  0  0  0  0  0  0  0  0  0  0 
    6.3384    2.2512   -1.3782 H   0  0  0  0  0  0  0  0  0  0  0  0 
    5.7462    3.8158   -1.9956 H   0  0  0  0  0  0  0  0  0  0  0  0 
  1  9  1  0  0  0  0 
  1  3  1  0  0  0  0 
  2 14  1  0  0  0  0 
  2 12  1  0  0  0  0 
  2 13  1  0  0  0  0 
  3 16  1  0  0  0  0 
  3 15  1  0  0  0  0 
  4  2  1  0  0  0  0 
  5  6  2  0  0  0  0 
  7  3  1  0  0  0  0 
  7  5  1  0  0  0  0 
  8  4  1  0  0  0  0 
  8  5  1  0  0  0  0 
 10  1  1  0  0  0  0 
 11  1  1  0  0  0  0 
 17  4  1  0  0  0  0 
 18  4  1  0  0  0  0 
M  END 
>  <HBA> 
3 
 
>  <HBD> 
0 
 
>  <TPSA> 
35.53 
 
>  <cid> 
7766 
 
>  <dipole> 
0.22 
 
>  <excitation_energy_1> 
6.921 
 
>  <excitation_energy_2> 
7.476 
 
>  <excitation_energy_3> 
7.804 
 
>  <excitation_energy_4> 
7.873 
 
>  <homo_energy> 
-7.655 
 
>  <homo_lumo_gap> 
8.89 
 
>  <logP> 
1.179 
 
>  <lumo_energy> 
1.235 
 
>  <melting_point> 
-12.07 
 
>  <molecular_refractivity> 
28.91 
 
>  <oscillator_strength_1> 
0.0002 
 
>  <oscillator_strength_2> 
0.0094 
 
>  <oscillator_strength_3> 
0.0 
 
>  <oscillator_strength_4> 
0.0953 
 
>  <open_babel_can_smiles> 
CCOC(=O)OCC 
 
>  <mulliken_charges> 
18 
1   -0.463173 
2   -0.462969 
3   -0.043028 
4   -0.042942 
5   0.796397 
6   -0.501015 
7   -0.455425 
8   -0.455489 
9   0.150294 
10   0.176752 
11   0.160314 
12   0.150224 
13   0.176853 
14   0.160168 
15   0.170311 
16   0.156269 
17   0.170192 
18   0.15627 
 
>  <lowdin_charges> 
18 
1   -0.45352 
2   -0.457041 
3   -0.119017 
4   -0.124091 
5   0.233878 
6   -0.303545 
7   -0.181652 
8   -0.181851 
9   0.158755 
10   0.16385 
11   0.157132 
12   0.158883 
13   0.166506 
14   0.158197 
15   0.15763 
16   0.151822 
17   0.159097 
18   0.154968 
 
$$$$ 
 
