PCCDB-ID:  29838 
public computational chemistry database (PCCDB) project, http://pccdb.org 
 
 26 25  0  0  0  0  0  0  0  0999 V2000 
    1.1146   -0.1974   -0.5342 C   0  0  0  0  0  0  0  0  0  0  0  0 
    6.5556   -4.0267    4.1416 C   0  0  0  0  0  0  0  0  0  0  0  0 
    8.4555   -2.3447    3.9937 C   0  0  0  0  0  0  0  0  0  0  0  0 
    2.5459    0.0018   -0.0254 C   0  0  0  0  0  0  0  0  0  0  0  0 
    3.0214   -1.1378    0.8842 C   0  0  0  0  0  0  0  0  0  0  0  0 
    4.4491   -0.9415    1.3919 C   0  0  0  0  0  0  0  0  0  0  0  0 
    6.3364   -1.8886    2.7965 C   0  0  0  0  0  0  0  0  0  0  0  0 
    7.0498   -2.7152    3.5928 C   0  0  0  0  0  0  0  0  0  0  0  0 
    4.9519   -2.0703    2.2928 C   0  0  0  0  0  0  0  0  0  0  0  0 
    4.2346   -3.0302    2.5507 O   0  0  0  0  0  0  0  0  0  0  0  0 
    0.8009    0.6291   -1.1821 H   0  0  0  0  0  0  0  0  0  0  0  0 
    0.4033   -0.2575    0.2985 H   0  0  0  0  0  0  0  0  0  0  0  0 
    1.0259   -1.1263   -1.1109 H   0  0  0  0  0  0  0  0  0  0  0  0 
    7.2284   -4.8381    3.8303 H   0  0  0  0  0  0  0  0  0  0  0  0 
    5.5420   -4.2501    3.8157 H   0  0  0  0  0  0  0  0  0  0  0  0 
    6.5891   -4.0066    5.2400 H   0  0  0  0  0  0  0  0  0  0  0  0 
    8.5450   -2.2965    5.0876 H   0  0  0  0  0  0  0  0  0  0  0  0 
    8.7676   -1.3818    3.5790 H   0  0  0  0  0  0  0  0  0  0  0  0 
    9.1671   -3.1124    3.6599 H   0  0  0  0  0  0  0  0  0  0  0  0 
    2.6112    0.9555    0.5184 H   0  0  0  0  0  0  0  0  0  0  0  0 
    3.2284    0.0954   -0.8826 H   0  0  0  0  0  0  0  0  0  0  0  0 
    2.9588   -2.0940    0.3497 H   0  0  0  0  0  0  0  0  0  0  0  0 
    2.3451   -1.2361    1.7429 H   0  0  0  0  0  0  0  0  0  0  0  0 
    4.5402    0.0042    1.9492 H   0  0  0  0  0  0  0  0  0  0  0  0 
    5.1527   -0.8421    0.5501 H   0  0  0  0  0  0  0  0  0  0  0  0 
    6.8179   -0.9679    2.4684 H   0  0  0  0  0  0  0  0  0  0  0  0 
  1  4  1  0  0  0  0 
  1 12  1  0  0  0  0 
  2 16  1  0  0  0  0 
  3 17  1  0  0  0  0 
  4 20  1  0  0  0  0 
  4  5  1  0  0  0  0 
  5  6  1  0  0  0  0 
  5 23  1  0  0  0  0 
  6 24  1  0  0  0  0 
  6  9  1  0  0  0  0 
  7  8  2  0  0  0  0 
  8  3  1  0  0  0  0 
  8  2  1  0  0  0  0 
  9 10  2  0  0  0  0 
  9  7  1  0  0  0  0 
 11  1  1  0  0  0  0 
 13  1  1  0  0  0  0 
 14  2  1  0  0  0  0 
 15  2  1  0  0  0  0 
 18  3  1  0  0  0  0 
 19  3  1  0  0  0  0 
 21  4  1  0  0  0  0 
 22  5  1  0  0  0  0 
 25  6  1  0  0  0  0 
 26  7  1  0  0  0  0 
M  END 
>  <HBA> 
1 
 
>  <HBD> 
0 
 
>  <TPSA> 
17.07 
 
>  <cid> 
29838 
 
>  <dipole> 
2.67 
 
>  <excitation_energy_1> 
3.649 
 
>  <excitation_energy_2> 
5.485 
 
>  <excitation_energy_3> 
5.984 
 
>  <excitation_energy_4> 
6.362 
 
>  <homo_energy> 
-6.37 
 
>  <homo_lumo_gap> 
5.184 
 
>  <logP> 
2.712 
 
>  <lumo_energy> 
-1.186 
 
>  <melting_point> 
6.05 
 
>  <molecular_refractivity> 
45.1 
 
>  <oscillator_strength_1> 
0.0002 
 
>  <oscillator_strength_2> 
0.4441 
 
>  <oscillator_strength_3> 
0.0293 
 
>  <oscillator_strength_4> 
0.001 
 
>  <open_babel_can_smiles> 
CCCCC(=O)C=C(C)C 
 
>  <mulliken_charges> 
26 
1   -0.440864 
2   -0.532183 
3   -0.512009 
4   -0.250135 
5   -0.238904 
6   -0.368714 
7   -0.246065 
8   0.213917 
9   0.447721 
10   -0.479471 
11   0.140044 
12   0.143385 
13   0.143485 
14   0.154173 
15   0.215558 
16   0.154919 
17   0.163022 
18   0.158885 
19   0.163199 
20   0.127155 
21   0.127148 
22   0.145765 
23   0.145055 
24   0.1547 
25   0.154985 
26   0.115229 
 
>  <lowdin_charges> 
26 
1   -0.445503 
2   -0.455045 
3   -0.440623 
4   -0.27306 
5   -0.271474 
6   -0.309554 
7   -0.246058 
8   0.064159 
9   0.15923 
10   -0.257219 
11   0.14927 
12   0.148012 
13   0.14758 
14   0.161049 
15   0.187049 
16   0.158798 
17   0.160542 
18   0.157764 
19   0.163465 
20   0.136753 
21   0.13744 
22   0.149204 
23   0.149515 
24   0.157605 
25   0.158442 
26   0.152659 
 
$$$$ 
 
