PCCDB-ID:  20467 
public computational chemistry database (PCCDB) project, http://pccdb.org 
 
  9  9  0  0  0  0  0  0  0  0999 V2000 
   -0.4124   -1.0900    0.0643 C   0  0  0  0  0  0  0  0  0  0  0  0 
   -0.6826   -2.3295    0.1231 N   0  0  0  0  0  0  0  0  0  0  0  0 
   -1.2501    0.0577    0.1259 N   0  0  0  0  0  0  0  0  0  0  0  0 
    0.9249   -0.5935   -0.0594 N   0  0  0  0  0  0  0  0  0  0  0  0 
   -0.3929    1.1356   -0.2183 N   0  0  0  0  0  0  0  0  0  0  0  0 
    0.9009    0.6597   -0.1545 N   0  0  0  0  0  0  0  0  0  0  0  0 
   -1.6842   -2.4877    0.2537 H   0  0  0  0  0  0  0  0  0  0  0  0 
   -2.0562    0.0267   -0.4924 H   0  0  0  0  0  0  0  0  0  0  0  0 
   -0.4990    1.9477    0.3898 H   0  0  0  0  0  0  0  0  0  0  0  0 
  1  2  1  0  0  0  0 
  1  3  1  0  0  0  0 
  2  7  1  0  0  0  0 
  4  1  2  0  0  0  0 
  5  6  1  0  0  0  0 
  5  3  1  0  0  0  0 
  5  9  1  0  0  0  0 
  6  4  1  0  0  0  0 
  8  3  1  0  0  0  0 
M  RAD  2   2   2   6   2 
M  END 
>  <HBA> 
4 
 
>  <HBD> 
2 
 
>  <TPSA> 
80.48 
 
>  <cid> 
20467 
 
>  <dipole> 
5.13 
 
>  <excitation_energy_1> 
4.295 
 
>  <excitation_energy_2> 
4.373 
 
>  <excitation_energy_3> 
5.178 
 
>  <excitation_energy_4> 
5.578 
 
>  <homo_energy> 
-6.713 
 
>  <homo_lumo_gap> 
4.857 
 
>  <logP> 
-0.637 
 
>  <lumo_energy> 
-1.856 
 
>  <melting_point> 
146.26 
 
>  <molecular_refractivity> 
18.58 
 
>  <oscillator_strength_1> 
0.0646 
 
>  <oscillator_strength_2> 
0.0341 
 
>  <oscillator_strength_3> 
0.0082 
 
>  <oscillator_strength_4> 
0.0038 
 
>  <open_babel_can_smiles> 
[NH]C1=N[N]NN1 
 
>  <mulliken_charges> 
9 
1   0.584367 
2   -0.59253 
3   -0.491951 
4   -0.246395 
5   -0.258348 
6   -0.007813 
7   0.288077 
8   0.358141 
9   0.366452 
 
>  <lowdin_charges> 
9 
1   0.078216 
2   -0.380725 
3   -0.262006 
4   -0.09534 
5   -0.182238 
6   -0.009314 
7   0.259979 
8   0.29668 
9   0.294748 
 
$$$$ 
 
