PCCDB-ID:  70481 
public computational chemistry database (PCCDB) project, http://pccdb.org 
 
 15 15  0  0  0  0  0  0  0  0999 V2000 
    0.9558   -0.0190   -0.0582 C   0  0  0  0  0  0  0  0  0  0  0  0 
    4.5735    1.1396    0.3604 C   0  0  0  0  0  0  0  0  0  0  0  0 
    3.1842    1.1761    0.2206 C   0  0  0  0  0  0  0  0  0  0  0  0 
    5.1893   -0.1079    0.3701 C   0  0  0  0  0  0  0  0  0  0  0  0 
    2.4571   -0.0054    0.0974 C   0  0  0  0  0  0  0  0  0  0  0  0 
    3.2057   -1.2053    0.1225 C   0  0  0  0  0  0  0  0  0  0  0  0 
    4.5242   -1.2638    0.2532 N   0  0  0  0  0  0  0  0  0  0  0  0 
    2.6031   -2.4223    0.0097 O   0  0  0  0  0  0  0  0  0  0  0  0 
    0.5535    0.9981   -0.0443 H   0  0  0  0  0  0  0  0  0  0  0  0 
    0.4607   -0.5719    0.7530 H   0  0  0  0  0  0  0  0  0  0  0  0 
    0.6428   -0.4764   -1.0079 H   0  0  0  0  0  0  0  0  0  0  0  0 
    5.1562    2.0499    0.4575 H   0  0  0  0  0  0  0  0  0  0  0  0 
    2.6572    2.1277    0.2067 H   0  0  0  0  0  0  0  0  0  0  0  0 
    6.2696   -0.1937    0.4763 H   0  0  0  0  0  0  0  0  0  0  0  0 
    1.6467   -2.2980   -0.0846 H   0  0  0  0  0  0  0  0  0  0  0  0 
  1  9  1  0  0  0  0 
  1  5  1  0  0  0  0 
  1 10  1  0  0  0  0 
  2  4  2  0  0  0  0 
  2 12  1  0  0  0  0 
  3  2  1  0  0  0  0 
  4 14  1  0  0  0  0 
  5  6  1  0  0  0  0 
  5  3  2  0  0  0  0 
  6  7  2  0  0  0  0 
  7  4  1  0  0  0  0 
  8  6  1  0  0  0  0 
 11  1  1  0  0  0  0 
 13  3  1  0  0  0  0 
 15  8  1  0  0  0  0 
M  END 
>  <HBA> 
1 
 
>  <HBD> 
1 
 
>  <TPSA> 
32.86 
 
>  <cid> 
70481 
 
>  <dipole> 
3.62 
 
>  <excitation_energy_1> 
5.064 
 
>  <excitation_energy_2> 
5.148 
 
>  <excitation_energy_3> 
5.497 
 
>  <excitation_energy_4> 
5.657 
 
>  <homo_energy> 
-6.253 
 
>  <homo_lumo_gap> 
5.826 
 
>  <logP> 
0.683 
 
>  <lumo_energy> 
-0.427 
 
>  <melting_point> 
89.87 
 
>  <molecular_refractivity> 
32.03 
 
>  <oscillator_strength_1> 
0.0866 
 
>  <oscillator_strength_2> 
0.0035 
 
>  <oscillator_strength_3> 
0.0043 
 
>  <oscillator_strength_4> 
0.0005 
 
>  <open_babel_can_smiles> 
Cc1cccnc1O 
 
>  <mulliken_charges> 
15 
1   -0.578378 
2   -0.14634 
3   -0.15627 
4   0.034003 
5   0.141228 
6   0.42829 
7   -0.451132 
8   -0.59889 
9   0.172415 
10   0.166187 
11   0.167026 
12   0.132645 
13   0.133947 
14   0.141932 
15   0.413338 
 
>  <lowdin_charges> 
15 
1   -0.453747 
2   -0.200707 
3   -0.133693 
4   -0.078685 
5   -0.063513 
6   0.124924 
7   -0.157062 
8   -0.357266 
9   0.167775 
10   0.159591 
11   0.159033 
12   0.163639 
13   0.159249 
14   0.154681 
15   0.355779 
 
$$$$ 
 
