PCCDB-ID:  71655 
public computational chemistry database (PCCDB) project, http://pccdb.org 
 
 25 25  0  0  0  0  0  0  0  0999 V2000 
    1.2118    0.3151   -0.2537 C   0  0  0  0  0  0  0  0  0  0  0  0 
   -1.0988    0.8306   -0.7781 C   0  0  0  0  0  0  0  0  0  0  0  0 
    0.7517   -1.0325    0.3012 C   0  0  0  0  0  0  0  0  0  0  0  0 
   -1.4874   -0.5395   -0.2084 C   0  0  0  0  0  0  0  0  0  0  0  0 
   -1.1180    4.1131    1.8475 C   0  0  0  0  0  0  0  0  0  0  0  0 
    0.0981    2.0799    1.0135 C   0  0  0  0  0  0  0  0  0  0  0  0 
   -0.5655    4.1104    3.0042 N   0  0  0  0  0  0  0  0  0  0  0  0 
   -2.0421    5.0473    1.3536 N   0  0  0  0  0  0  0  0  0  0  0  0 
    0.8262    1.8079    2.0227 N   0  0  0  0  0  0  0  0  0  0  0  0 
   -0.8048    3.1683    0.8734 N   0  0  0  0  0  0  0  0  0  0  0  0 
    0.1488    1.3265   -0.1734 N   0  0  0  0  0  0  0  0  0  0  0  0 
   -0.4343   -1.4770   -0.3631 O   0  0  0  0  0  0  0  0  0  0  0  0 
    1.4732    0.1992   -1.3141 H   0  0  0  0  0  0  0  0  0  0  0  0 
    2.0796    0.6808    0.2966 H   0  0  0  0  0  0  0  0  0  0  0  0 
   -1.9074    1.5470   -0.6117 H   0  0  0  0  0  0  0  0  0  0  0  0 
   -0.9396    0.7377   -1.8604 H   0  0  0  0  0  0  0  0  0  0  0  0 
    0.5743   -0.9450    1.3826 H   0  0  0  0  0  0  0  0  0  0  0  0 
    1.5058   -1.8060    0.1247 H   0  0  0  0  0  0  0  0  0  0  0  0 
   -2.3513   -0.9483   -0.7442 H   0  0  0  0  0  0  0  0  0  0  0  0 
   -1.7539   -0.4339    0.8573 H   0  0  0  0  0  0  0  0  0  0  0  0 
   -0.9830    4.8137    3.6146 H   0  0  0  0  0  0  0  0  0  0  0  0 
   -2.3772    5.6958    2.0559 H   0  0  0  0  0  0  0  0  0  0  0  0 
   -2.8095    4.6450    0.8251 H   0  0  0  0  0  0  0  0  0  0  0  0 
    0.7373    2.5471    2.7239 H   0  0  0  0  0  0  0  0  0  0  0  0 
   -0.9210    3.4916   -0.0786 H   0  0  0  0  0  0  0  0  0  0  0  0 
  1 11  1  0  0  0  0 
  1 14  1  0  0  0  0 
  1  3  1  0  0  0  0 
  2 15  1  0  0  0  0 
  2  4  1  0  0  0  0 
  2 11  1  0  0  0  0 
  3 17  1  0  0  0  0 
  4 20  1  0  0  0  0 
  5  7  1  0  0  0  0 
  6  9  2  0  0  0  0 
  7 21  1  0  0  0  0 
  8  5  2  0  0  0  0 
  8 22  1  0  0  0  0 
  9 24  1  0  0  0  0 
 10  6  1  0  0  0  0 
 10  5  1  0  0  0  0 
 11  6  1  0  0  0  0 
 12  4  1  0  0  0  0 
 12  3  1  0  0  0  0 
 13  1  1  0  0  0  0 
 16  2  1  0  0  0  0 
 18  3  1  0  0  0  0 
 19  4  1  0  0  0  0 
 23  8  1  0  0  0  0 
 25 10  1  0  0  0  0 
M  RAD  1   7   2 
M  END 
>  <HBA> 
6 
 
>  <HBD> 
3 
 
>  <TPSA> 
100.72 
 
>  <cid> 
71655 
 
>  <dipole> 
5.45 
 
>  <excitation_energy_1> 
4.668 
 
>  <excitation_energy_2> 
5.305 
 
>  <excitation_energy_3> 
5.407 
 
>  <excitation_energy_4> 
5.48 
 
>  <homo_energy> 
-5.619 
 
>  <homo_lumo_gap> 
6.245 
 
>  <logP> 
-0.035 
 
>  <lumo_energy> 
0.626 
 
>  <melting_point> 
147.36 
 
>  <molecular_refractivity> 
49.43 
 
>  <oscillator_strength_1> 
0.0007 
 
>  <oscillator_strength_2> 
0.0249 
 
>  <oscillator_strength_3> 
0.0012 
 
>  <oscillator_strength_4> 
0.0413 
 
>  <open_babel_can_smiles> 
N=C(N1CCOCC1)NC(=[NH2])[NH] 
 
>  <mulliken_charges> 
25 
1   -0.142261 
2   -0.165397 
3   -0.045611 
4   -0.025448 
5   0.636691 
6   0.636825 
7   -0.646349 
8   -0.761407 
9   -0.662933 
10   -0.680846 
11   -0.462141 
12   -0.469553 
13   0.140229 
14   0.180884 
15   0.13572 
16   0.151966 
17   0.159261 
18   0.141599 
19   0.140825 
20   0.132748 
21   0.276876 
22   0.325648 
23   0.325871 
24   0.33706 
25   0.33974 
 
>  <lowdin_charges> 
25 
1   -0.21176 
2   -0.217705 
3   -0.143043 
4   -0.143813 
5   0.137057 
6   0.126247 
7   -0.457254 
8   -0.508708 
9   -0.44643 
10   -0.280575 
11   -0.152329 
12   -0.278386 
13   0.142726 
14   0.176799 
15   0.149262 
16   0.145763 
17   0.144889 
18   0.15139 
19   0.150233 
20   0.131448 
21   0.25546 
22   0.28042 
23   0.280968 
24   0.277825 
25   0.289515 
 
$$$$ 
 
