PCCDB-ID:  21475 
public computational chemistry database (PCCDB) project, http://pccdb.org 
 
 25 25  0  0  1  0  0  0  0  0999 V2000 
    0.9439    0.0931    0.2455 C   0  0  0  0  0  0  0  0  0  0  0  0 
    5.0128   -2.8338   -0.1281 C   0  0  0  0  0  0  0  0  0  0  0  0 
    7.4775   -0.4777    0.8800 C   0  0  0  0  0  0  0  0  0  0  0  0 
    3.2334    1.1129   -0.1515 C   0  0  0  0  0  0  0  0  0  0  0  0 
    4.6095    0.9774   -0.3304 C   0  0  0  0  0  0  0  0  0  0  0  0 
    3.0689   -1.2667    0.0338 C   0  0  0  0  0  0  0  0  0  0  0  0 
    2.4364   -0.0168    0.0364 C   0  0  0  0  0  0  0  0  0  0  0  0 
    4.4489   -1.4282   -0.1329 C   0  0  0  0  0  0  0  0  0  0  0  0 
    6.7554   -0.2867   -0.4627 C   0  0  2  0  0  0  0  0  0  0  0  0 
    5.2409   -0.2702   -0.3182 C   0  0  0  0  0  0  0  0  0  0  0  0 
    7.1308   -1.2959   -1.4052 O   0  0  0  0  0  0  0  0  0  0  0  0 
    0.5801    1.0980    0.0077 H   0  0  0  0  0  0  0  0  0  0  0  0 
    0.6688   -0.1189    1.2873 H   0  0  0  0  0  0  0  0  0  0  0  0 
    0.3964   -0.6202   -0.3817 H   0  0  0  0  0  0  0  0  0  0  0  0 
    4.2196   -3.5595    0.0789 H   0  0  0  0  0  0  0  0  0  0  0  0 
    5.7900   -2.9669    0.6325 H   0  0  0  0  0  0  0  0  0  0  0  0 
    5.4737   -3.0797   -1.0879 H   0  0  0  0  0  0  0  0  0  0  0  0 
    7.2177    0.3279    1.5750 H   0  0  0  0  0  0  0  0  0  0  0  0 
    8.5669   -0.4564    0.7371 H   0  0  0  0  0  0  0  0  0  0  0  0 
    7.2125   -1.4319    1.3442 H   0  0  0  0  0  0  0  0  0  0  0  0 
    2.7814    2.1021   -0.1642 H   0  0  0  0  0  0  0  0  0  0  0  0 
    5.2116    1.8698   -0.4897 H   0  0  0  0  0  0  0  0  0  0  0  0 
    2.4602   -2.1596    0.1682 H   0  0  0  0  0  0  0  0  0  0  0  0 
    7.0514    0.6982   -0.8588 H   0  0  0  0  0  0  0  0  0  0  0  0 
    8.0999   -1.3364   -1.4124 H   0  0  0  0  0  0  0  0  0  0  0  0 
  1 13  1  0  0  0  0 
  2 15  1  0  0  0  0 
  2 16  1  0  0  0  0 
  3 20  1  0  0  0  0 
  3 18  1  0  0  0  0 
  4  7  2  0  0  0  0 
  5 10  2  0  0  0  0 
  5  4  1  0  0  0  0 
  6  7  1  0  0  0  0 
  6 23  1  0  0  0  0 
  7  1  1  0  0  0  0 
  8  2  1  0  0  0  0 
  8  6  2  0  0  0  0 
  9 24  1  6  0  0  0 
  9 10  1  0  0  0  0 
  9  3  1  0  0  0  0 
 10  8  1  0  0  0  0 
 11  9  1  0  0  0  0 
 12  1  1  0  0  0  0 
 14  1  1  0  0  0  0 
 17  2  1  0  0  0  0 
 19  3  1  0  0  0  0 
 21  4  1  0  0  0  0 
 22  5  1  0  0  0  0 
 25 11  1  0  0  0  0 
M  END 
>  <HBA> 
1 
 
>  <HBD> 
1 
 
>  <TPSA> 
20.23 
 
>  <cid> 
21475 
 
>  <dipole> 
1.44 
 
>  <excitation_energy_1> 
5.112 
 
>  <excitation_energy_2> 
5.567 
 
>  <excitation_energy_3> 
5.64 
 
>  <excitation_energy_4> 
5.866 
 
>  <homo_energy> 
-6.095 
 
>  <homo_lumo_gap> 
6.231 
 
>  <logP> 
2.357 
 
>  <lumo_energy> 
0.136 
 
>  <melting_point> 
34.78 
 
>  <molecular_refractivity> 
47.31 
 
>  <oscillator_strength_1> 
0.003 
 
>  <oscillator_strength_2> 
0.0014 
 
>  <oscillator_strength_3> 
0.0618 
 
>  <oscillator_strength_4> 
0.0073 
 
>  <open_babel_can_smiles> 
Cc1ccc(c(c1)C)[C@H](O)C 
 
>  <mulliken_charges> 
25 
1   -0.530867 
2   -0.522023 
3   -0.4658 
4   -0.186731 
5   -0.192488 
6   -0.244366 
7   0.192716 
8   0.13404 
9   0.063829 
10   0.122938 
11   -0.626146 
12   0.15324 
13   0.162013 
14   0.159019 
15   0.140227 
16   0.150267 
17   0.188068 
18   0.154162 
19   0.130848 
20   0.161936 
21   0.117016 
22   0.118923 
23   0.112335 
24   0.118998 
25   0.387845 
 
>  <lowdin_charges> 
25 
1   -0.442038 
2   -0.44619 
3   -0.459475 
4   -0.17545 
5   -0.164847 
6   -0.177884 
7   0.00192 
8   0.008103 
9   0.006426 
10   -0.023139 
11   -0.459429 
12   0.155265 
13   0.159047 
14   0.160293 
15   0.149385 
16   0.154292 
17   0.173877 
18   0.159773 
19   0.140761 
20   0.156553 
21   0.152036 
22   0.152255 
23   0.150422 
24   0.129342 
25   0.338701 
 
$$$$ 
 
