PCCDB-ID:  30755 
public computational chemistry database (PCCDB) project, http://pccdb.org 
 
 31 32  0  0  1  0  0  0  0  0999 V2000 
    0.9422   -0.0447   -0.0672 C   0  0  0  0  0  0  0  0  0  0  0  0 
    5.8763   -2.8917   -1.5526 C   0  0  0  0  0  0  0  0  0  0  0  0 
    6.7896   -0.0032    0.1077 C   0  0  0  0  0  0  0  0  0  0  0  0 
    3.1727   -3.8705   -0.2884 C   0  0  0  0  0  0  0  0  0  0  0  0 
    4.5286   -3.7883    0.4128 C   0  0  0  0  0  0  0  0  0  0  0  0 
    2.3632   -2.5891   -0.0544 C   0  0  0  0  0  0  0  0  0  0  0  0 
    3.1651    1.1238   -0.0146 C   0  0  0  0  0  0  0  0  0  0  0  0 
    4.5566    1.1254    0.0281 C   0  0  0  0  0  0  0  0  0  0  0  0 
    2.4540   -0.0741   -0.0582 C   0  0  0  0  0  0  0  0  0  0  0  0 
    5.3574   -2.6076   -0.1242 C   0  0  2  0  0  0  0  0  0  0  0  0 
    5.2795   -0.0678    0.0119 C   0  0  0  0  0  0  0  0  0  0  0  0 
    3.1667   -1.2955   -0.0810 C   0  0  0  0  0  0  0  0  0  0  0  0 
    4.5766   -1.2950   -0.0621 C   0  0  0  0  0  0  0  0  0  0  0  0 
    0.5749    0.9847   -0.0131 H   0  0  0  0  0  0  0  0  0  0  0  0 
    0.5145   -0.5952    0.7808 H   0  0  0  0  0  0  0  0  0  0  0  0 
    0.5251   -0.4974   -0.9766 H   0  0  0  0  0  0  0  0  0  0  0  0 
    6.4778   -3.8092   -1.5674 H   0  0  0  0  0  0  0  0  0  0  0  0 
    6.5011   -2.0748   -1.9256 H   0  0  0  0  0  0  0  0  0  0  0  0 
    5.0522   -3.0149   -2.2628 H   0  0  0  0  0  0  0  0  0  0  0  0 
    7.1203    1.0354    0.2061 H   0  0  0  0  0  0  0  0  0  0  0  0 
    7.2909   -0.4227   -0.7724 H   0  0  0  0  0  0  0  0  0  0  0  0 
    7.1701   -0.5512    0.9793 H   0  0  0  0  0  0  0  0  0  0  0  0 
    2.6016   -4.7362    0.0686 H   0  0  0  0  0  0  0  0  0  0  0  0 
    3.3224   -4.0260   -1.3640 H   0  0  0  0  0  0  0  0  0  0  0  0 
    5.0901   -4.7226    0.2832 H   0  0  0  0  0  0  0  0  0  0  0  0 
    4.3718   -3.6598    1.4931 H   0  0  0  0  0  0  0  0  0  0  0  0 
    1.8657   -2.6565    0.9263 H   0  0  0  0  0  0  0  0  0  0  0  0 
    1.5461   -2.5353   -0.7852 H   0  0  0  0  0  0  0  0  0  0  0  0 
    2.6233    2.0670   -0.0002 H   0  0  0  0  0  0  0  0  0  0  0  0 
    5.0916    2.0709    0.0849 H   0  0  0  0  0  0  0  0  0  0  0  0 
    6.2403   -2.5080    0.5201 H   0  0  0  0  0  0  0  0  0  0  0  0 
  1  9  1  0  0  0  0 
  1 14  1  0  0  0  0 
  1 15  1  0  0  0  0 
  2 10  1  0  0  0  0 
  3 20  1  0  0  0  0 
  3 22  1  0  0  0  0 
  4  6  1  0  0  0  0 
  4 23  1  0  0  0  0 
  4  5  1  0  0  0  0 
  5 26  1  0  0  0  0 
  6 27  1  0  0  0  0 
  7 29  1  0  0  0  0 
  7  8  1  0  0  0  0 
  8 30  1  0  0  0  0 
  9  7  2  0  0  0  0 
 10 13  1  0  0  0  0 
 10  5  1  0  0  0  0 
 10 31  1  1  0  0  0 
 11  8  2  0  0  0  0 
 11  3  1  0  0  0  0 
 12 13  2  0  0  0  0 
 12  9  1  0  0  0  0 
 12  6  1  0  0  0  0 
 13 11  1  0  0  0  0 
 16  1  1  0  0  0  0 
 17  2  1  0  0  0  0 
 18  2  1  0  0  0  0 
 19  2  1  0  0  0  0 
 21  3  1  0  0  0  0 
 24  4  1  0  0  0  0 
 25  5  1  0  0  0  0 
 28  6  1  0  0  0  0 
M  END 
>  <HBA> 
0 
 
>  <HBD> 
0 
 
>  <TPSA> 
0.0 
 
>  <cid> 
30755 
 
>  <dipole> 
0.51 
 
>  <excitation_energy_1> 
5.076 
 
>  <excitation_energy_2> 
5.495 
 
>  <excitation_energy_3> 
5.642 
 
>  <excitation_energy_4> 
5.668 
 
>  <homo_energy> 
-5.948 
 
>  <homo_lumo_gap> 
6.267 
 
>  <logP> 
3.743 
 
>  <lumo_energy> 
0.318 
 
>  <melting_point> 
42.25 
 
>  <molecular_refractivity> 
58.61 
 
>  <oscillator_strength_1> 
0.0007 
 
>  <oscillator_strength_2> 
0.0026 
 
>  <oscillator_strength_3> 
0.0037 
 
>  <oscillator_strength_4> 
0.0146 
 
>  <open_babel_can_smiles> 
C[C@@H]1CCCc2c1c(C)ccc2C 
 
>  <mulliken_charges> 
31 
1   -0.534268 
2   -0.44754 
3   -0.541932 
4   -0.27124 
5   -0.264599 
6   -0.343005 
7   -0.184064 
8   -0.185655 
9   0.130074 
10   -0.154253 
11   0.130386 
12   0.058363 
13   0.056434 
14   0.151987 
15   0.15607 
16   0.157491 
17   0.138617 
18   0.149196 
19   0.148964 
20   0.152464 
21   0.159762 
22   0.159515 
23   0.131123 
24   0.139419 
25   0.126714 
26   0.132944 
27   0.147624 
28   0.143488 
29   0.114522 
30   0.114194 
31   0.127205 
 
>  <lowdin_charges> 
31 
1   -0.442833 
2   -0.446403 
3   -0.44524 
4   -0.277928 
5   -0.273538 
6   -0.276569 
7   -0.172264 
8   -0.173154 
9   -0.011037 
10   -0.125283 
11   -0.010972 
12   -0.023528 
13   -0.023067 
14   0.154646 
15   0.156918 
16   0.156487 
17   0.14639 
18   0.152068 
19   0.149883 
20   0.154689 
21   0.156774 
22   0.15724 
23   0.145554 
24   0.140088 
25   0.142001 
26   0.139884 
27   0.149114 
28   0.151928 
29   0.151213 
30   0.150989 
31   0.145951 
 
$$$$ 
 
