PCCDB-ID:  27966 
public computational chemistry database (PCCDB) project, http://pccdb.org 
 
 34 34  0  0  0  0  0  0  0  0999 V2000 
    1.0995    0.1437    0.3557 C   0  0  0  0  0  0  0  0  0  0  0  0 
    2.9048   -1.5600    0.1114 C   0  0  0  0  0  0  0  0  0  0  0  0 
    5.4042    3.2473   -2.2549 C   0  0  0  0  0  0  0  0  0  0  0  0 
    5.9535    2.0177   -2.9910 C   0  0  0  0  0  0  0  0  0  0  0  0 
    4.0606    3.8048   -2.7424 C   0  0  0  0  0  0  0  0  0  0  0  0 
    5.1082    0.7280   -2.9309 C   0  0  0  0  0  0  0  0  0  0  0  0 
    2.8315    2.8798   -2.6218 C   0  0  0  0  0  0  0  0  0  0  0  0 
    4.5622    0.3389   -1.5336 C   0  0  0  0  0  0  0  0  0  0  0  0 
    2.6721    2.1325   -1.2735 C   0  0  0  0  0  0  0  0  0  0  0  0 
    3.0641    0.6315   -1.2523 C   0  0  0  0  0  0  0  0  0  0  0  0 
    2.6061   -0.0470    0.0856 C   0  0  0  0  0  0  0  0  0  0  0  0 
    3.3603    0.6021    1.1273 O   0  0  0  0  0  0  0  0  0  0  0  0 
    0.4911   -0.2032   -0.4881 H   0  0  0  0  0  0  0  0  0  0  0  0 
    0.8544    1.1883    0.5571 H   0  0  0  0  0  0  0  0  0  0  0  0 
    0.8005   -0.4396    1.2363 H   0  0  0  0  0  0  0  0  0  0  0  0 
    2.4719   -2.0728   -0.7560 H   0  0  0  0  0  0  0  0  0  0  0  0 
    2.4667   -2.0117    1.0109 H   0  0  0  0  0  0  0  0  0  0  0  0 
    3.9781   -1.7593    0.1348 H   0  0  0  0  0  0  0  0  0  0  0  0 
    6.1511    4.0496   -2.3330 H   0  0  0  0  0  0  0  0  0  0  0  0 
    5.3327    3.0217   -1.1831 H   0  0  0  0  0  0  0  0  0  0  0  0 
    6.9418    1.7955   -2.5635 H   0  0  0  0  0  0  0  0  0  0  0  0 
    6.1336    2.2724   -4.0455 H   0  0  0  0  0  0  0  0  0  0  0  0 
    4.1567    4.1271   -3.7895 H   0  0  0  0  0  0  0  0  0  0  0  0 
    3.8567    4.7184   -2.1657 H   0  0  0  0  0  0  0  0  0  0  0  0 
    5.7506   -0.0872   -3.2894 H   0  0  0  0  0  0  0  0  0  0  0  0 
    4.2859    0.7754   -3.6531 H   0  0  0  0  0  0  0  0  0  0  0  0 
    2.8128    2.1616   -3.4485 H   0  0  0  0  0  0  0  0  0  0  0  0 
    1.9450    3.5091   -2.7762 H   0  0  0  0  0  0  0  0  0  0  0  0 
    5.1685    0.7986   -0.7439 H   0  0  0  0  0  0  0  0  0  0  0  0 
    4.7114   -0.7385   -1.4253 H   0  0  0  0  0  0  0  0  0  0  0  0 
    1.6162    2.2002   -0.9986 H   0  0  0  0  0  0  0  0  0  0  0  0 
    3.2157    2.6550   -0.4777 H   0  0  0  0  0  0  0  0  0  0  0  0 
    2.4833    0.1352   -2.0469 H   0  0  0  0  0  0  0  0  0  0  0  0 
    3.0975    0.1997    1.9704 H   0  0  0  0  0  0  0  0  0  0  0  0 
  1 14  1  0  0  0  0 
  1 15  1  0  0  0  0 
  2 18  1  0  0  0  0 
  2 17  1  0  0  0  0 
  3 20  1  0  0  0  0 
  4  6  1  0  0  0  0 
  4 21  1  0  0  0  0 
  4  3  1  0  0  0  0 
  5  7  1  0  0  0  0 
  5  3  1  0  0  0  0 
  5 24  1  0  0  0  0 
  6  8  1  0  0  0  0 
  7  9  1  0  0  0  0 
  8 30  1  0  0  0  0 
  8 10  1  0  0  0  0 
  8 29  1  0  0  0  0 
  9 10  1  0  0  0  0 
  9 31  1  0  0  0  0 
  9 32  1  0  0  0  0 
 10 11  1  0  0  0  0 
 11  2  1  0  0  0  0 
 11  1  1  0  0  0  0 
 11 12  1  0  0  0  0 
 12 34  1  0  0  0  0 
 13  1  1  0  0  0  0 
 16  2  1  0  0  0  0 
 19  3  1  0  0  0  0 
 22  4  1  0  0  0  0 
 23  5  1  0  0  0  0 
 25  6  1  0  0  0  0 
 26  6  1  0  0  0  0 
 27  7  1  0  0  0  0 
 28  7  1  0  0  0  0 
 33 10  1  0  0  0  0 
M  END 
>  <HBA> 
1 
 
>  <HBD> 
1 
 
>  <TPSA> 
20.23 
 
>  <cid> 
27966 
 
>  <dipole> 
1.53 
 
>  <excitation_energy_1> 
6.313 
 
>  <excitation_energy_2> 
6.924 
 
>  <excitation_energy_3> 
7.096 
 
>  <excitation_energy_4> 
7.182 
 
>  <homo_energy> 
-7.007 
 
>  <homo_lumo_gap> 
8.787 
 
>  <logP> 
3.118 
 
>  <lumo_energy> 
1.78 
 
>  <melting_point> 
22.34 
 
>  <molecular_refractivity> 
54.08 
 
>  <oscillator_strength_1> 
0.0169 
 
>  <oscillator_strength_2> 
0.0 
 
>  <oscillator_strength_3> 
0.0018 
 
>  <oscillator_strength_4> 
0.0163 
 
>  <open_babel_can_smiles> 
CC(C1CCCCCCC1)(O)C 
 
>  <mulliken_charges> 
34 
1   -0.472087 
2   -0.472307 
3   -0.258631 
4   -0.255785 
5   -0.255317 
6   -0.267432 
7   -0.267742 
8   -0.27393 
9   -0.27344 
10   -0.087841 
11   0.319754 
12   -0.642062 
13   0.142827 
14   0.161886 
15   0.127024 
16   0.142863 
17   0.126995 
18   0.16197 
19   0.125012 
20   0.140329 
21   0.127398 
22   0.122883 
23   0.122842 
24   0.127277 
25   0.12673 
26   0.133073 
27   0.133106 
28   0.126763 
29   0.154505 
30   0.128168 
31   0.128014 
32   0.15467 
33   0.10938 
34   0.383104 
 
>  <lowdin_charges> 
34 
1   -0.463191 
2   -0.462657 
3   -0.282724 
4   -0.275589 
5   -0.276307 
6   -0.285732 
7   -0.285339 
8   -0.285139 
9   -0.285318 
10   -0.128749 
11   0.125508 
12   -0.465114 
13   0.153326 
14   0.156313 
15   0.143209 
16   0.153288 
17   0.143203 
18   0.155831 
19   0.143255 
20   0.140861 
21   0.139053 
22   0.136294 
23   0.136436 
24   0.139704 
25   0.142643 
26   0.139588 
27   0.139582 
28   0.142056 
29   0.152481 
30   0.14369 
31   0.143992 
32   0.152576 
33   0.133717 
34   0.339252 
 
$$$$ 
 
