PCCDB-ID:  12090 
public computational chemistry database (PCCDB) project, http://pccdb.org 
 
 15 15  0  0  0  0  0  0  0  0999 V2000 
   -0.7670    1.1588    0.0825 C   0  0  0  0  0  0  0  0  0  0  0  0 
    1.3939    0.0617   -0.1947 C   0  0  0  0  0  0  0  0  0  0  0  0 
   -1.3987   -0.0795    0.0746 C   0  0  0  0  0  0  0  0  0  0  0  0 
    0.7651   -1.1781   -0.2028 C   0  0  0  0  0  0  0  0  0  0  0  0 
    1.2802    2.5126   -0.0426 C   0  0  0  0  0  0  0  0  0  0  0  0 
    0.6305    1.2336   -0.0517 C   0  0  0  0  0  0  0  0  0  0  0  0 
   -0.6209   -1.2266   -0.0688 C   0  0  0  0  0  0  0  0  0  0  0  0 
    1.8066    3.5494   -0.0349 N   0  0  0  0  0  0  0  0  0  0  0  0 
   -1.2899   -2.5426   -0.0775 N   0  0  0  0  0  0  0  0  0  0  0  0 
   -2.5131   -2.5573    0.0429 O   0  0  0  0  0  0  0  0  0  0  0  0 
   -0.5804   -3.5383   -0.2047 O   0  0  0  0  0  0  0  0  0  0  0  0 
   -1.3467    2.0689    0.1925 H   0  0  0  0  0  0  0  0  0  0  0  0 
    2.4714    0.1301   -0.2970 H   0  0  0  0  0  0  0  0  0  0  0  0 
   -2.4729   -0.1700    0.1754 H   0  0  0  0  0  0  0  0  0  0  0  0 
    1.3252   -2.0984   -0.3112 H   0  0  0  0  0  0  0  0  0  0  0  0 
  1 12  1  0  0  0  0 
  2  6  1  0  0  0  0 
  3  1  1  0  0  0  0 
  3 14  1  0  0  0  0 
  4  2  2  0  0  0  0 
  4  7  1  0  0  0  0 
  5  8  3  0  0  0  0 
  6  5  1  0  0  0  0 
  6  1  2  0  0  0  0 
  7  3  2  0  0  0  0 
  9  7  1  0  0  0  0 
  9 10  2  0  0  0  0 
 11  9  2  0  0  0  0 
 13  2  1  0  0  0  0 
 15  4  1  0  0  0  0 
M  END 
>  <HBA> 
1 
 
>  <HBD> 
0 
 
>  <TPSA> 
69.61 
 
>  <cid> 
12090 
 
>  <dipole> 
0.13 
 
>  <excitation_energy_1> 
3.664 
 
>  <excitation_energy_2> 
4.163 
 
>  <excitation_energy_3> 
4.312 
 
>  <excitation_energy_4> 
4.477 
 
>  <homo_energy> 
-8.095 
 
>  <homo_lumo_gap> 
4.925 
 
>  <logP> 
1.99 
 
>  <lumo_energy> 
-3.17 
 
>  <melting_point> 
80.85 
 
>  <molecular_refractivity> 
39.98 
 
>  <oscillator_strength_1> 
0.0 
 
>  <oscillator_strength_2> 
0.0002 
 
>  <oscillator_strength_3> 
0.0206 
 
>  <oscillator_strength_4> 
0.3472 
 
>  <open_babel_can_smiles> 
N#Cc1ccc(cc1)N(=O)=O 
 
>  <mulliken_charges> 
15 
1   -0.145633 
2   -0.145544 
3   -0.152186 
4   -0.152434 
5   0.24662 
6   0.150427 
7   0.286873 
8   -0.459273 
9   0.384608 
10   -0.384159 
11   -0.384241 
12   0.178838 
13   0.178737 
14   0.19865 
15   0.198718 
 
>  <lowdin_charges> 
15 
1   -0.124911 
2   -0.122241 
3   -0.128459 
4   -0.130828 
5   -0.012392 
6   0.00091 
7   0.016942 
8   -0.093983 
9   0.305774 
10   -0.23286 
11   -0.23547 
12   0.184696 
13   0.182321 
14   0.194166 
15   0.196335 
 
$$$$ 
 
