PCCDB-ID:  46449 
public computational chemistry database (PCCDB) project, http://pccdb.org 
 
 32 33  0  0  1  0  0  0  0  0999 V2000 
    1.2882   -0.0975    0.0279 C   0  0  0  0  0  0  0  0  0  0  0  0 
    5.1846    4.8461   -3.1167 C   0  0  0  0  0  0  0  0  0  0  0  0 
    5.3817   -1.5936   -3.5545 C   0  0  0  0  0  0  0  0  0  0  0  0 
    4.3999   -1.2610   -2.4252 C   0  0  0  0  0  0  0  0  0  0  0  0 
    6.5348   -0.5889   -3.5790 C   0  0  0  0  0  0  0  0  0  0  0  0 
    2.7736    1.9578   -1.2129 C   0  0  0  0  0  0  0  0  0  0  0  0 
    3.5542    2.9408   -1.8364 C   0  0  0  0  0  0  0  0  0  0  0  0 
    4.1142    0.2226   -2.2726 C   0  0  0  0  0  0  0  0  0  0  0  0 
    6.0149    0.8362   -3.8561 C   0  0  2  0  0  0  0  0  0  0  0  0 
    3.0554    0.6135   -1.4191 C   0  0  0  0  0  0  0  0  0  0  0  0 
    4.6036    2.5724   -2.6710 C   0  0  0  0  0  0  0  0  0  0  0  0 
    4.8841    1.2036   -2.9046 C   0  0  0  0  0  0  0  0  0  0  0  0 
    5.5608    1.0648   -5.2433 N   0  0  0  0  0  0  0  0  0  0  0  0 
    2.3622   -0.4205   -0.8345 O   0  0  0  0  0  0  0  0  0  0  0  0 
    5.4368    3.4657   -3.2892 O   0  0  0  0  0  0  0  0  0  0  0  0 
    0.8846   -1.0501    0.3777 H   0  0  0  0  0  0  0  0  0  0  0  0 
    0.4989    0.4587   -0.4966 H   0  0  0  0  0  0  0  0  0  0  0  0 
    1.6245    0.4916    0.8924 H   0  0  0  0  0  0  0  0  0  0  0  0 
    5.9489    5.3661   -3.6980 H   0  0  0  0  0  0  0  0  0  0  0  0 
    5.2644    5.1482   -2.0627 H   0  0  0  0  0  0  0  0  0  0  0  0 
    4.1916    5.1264   -3.4940 H   0  0  0  0  0  0  0  0  0  0  0  0 
    4.8604   -1.5694   -4.5220 H   0  0  0  0  0  0  0  0  0  0  0  0 
    5.7535   -2.6180   -3.4337 H   0  0  0  0  0  0  0  0  0  0  0  0 
    4.8023   -1.6298   -1.4696 H   0  0  0  0  0  0  0  0  0  0  0  0 
    3.4560   -1.8002   -2.5627 H   0  0  0  0  0  0  0  0  0  0  0  0 
    7.2748   -0.8572   -4.3450 H   0  0  0  0  0  0  0  0  0  0  0  0 
    7.0582   -0.6065   -2.6117 H   0  0  0  0  0  0  0  0  0  0  0  0 
    1.9599    2.2677   -0.5673 H   0  0  0  0  0  0  0  0  0  0  0  0 
    3.3272    3.9840   -1.6502 H   0  0  0  0  0  0  0  0  0  0  0  0 
    6.8336    1.5458   -3.6936 H   0  0  0  0  0  0  0  0  0  0  0  0 
    4.7824    0.4431   -5.4582 H   0  0  0  0  0  0  0  0  0  0  0  0 
    6.3137    0.8228   -5.8882 H   0  0  0  0  0  0  0  0  0  0  0  0 
  1 16  1  0  0  0  0 
  1 18  1  0  0  0  0 
  2 20  1  0  0  0  0 
  3 23  1  0  0  0  0 
  3  4  1  0  0  0  0 
  4  8  1  0  0  0  0 
  4 24  1  0  0  0  0 
  5  3  1  0  0  0  0 
  5 27  1  0  0  0  0 
  6 28  1  0  0  0  0 
  7 29  1  0  0  0  0 
  7  6  2  0  0  0  0 
  8 10  2  0  0  0  0 
  9 30  1  1  0  0  0 
  9  5  1  0  0  0  0 
  9 12  1  0  0  0  0 
 10  6  1  0  0  0  0 
 10 14  1  0  0  0  0 
 11  7  1  0  0  0  0 
 12 11  2  0  0  0  0 
 12  8  1  0  0  0  0 
 13  9  1  0  0  0  0 
 14  1  1  0  0  0  0 
 15  2  1  0  0  0  0 
 15 11  1  0  0  0  0 
 17  1  1  0  0  0  0 
 19  2  1  0  0  0  0 
 21  2  1  0  0  0  0 
 22  3  1  0  0  0  0 
 25  4  1  0  0  0  0 
 26  5  1  0  0  0  0 
 31 13  1  0  0  0  0 
 32 13  1  0  0  0  0 
M  END 
>  <HBA> 
3 
 
>  <HBD> 
1 
 
>  <TPSA> 
44.48 
 
>  <cid> 
46449 
 
>  <dipole> 
1.23 
 
>  <excitation_energy_1> 
4.61 
 
>  <excitation_energy_2> 
4.794 
 
>  <excitation_energy_3> 
4.929 
 
>  <excitation_energy_4> 
5.142 
 
>  <homo_energy> 
-5.108 
 
>  <homo_lumo_gap> 
5.361 
 
>  <logP> 
2.74 
 
>  <lumo_energy> 
0.253 
 
>  <melting_point> 
99.71 
 
>  <molecular_refractivity> 
59.57 
 
>  <oscillator_strength_1> 
0.0812 
 
>  <oscillator_strength_2> 
0.0003 
 
>  <oscillator_strength_3> 
0.0009 
 
>  <oscillator_strength_4> 
0.0083 
 
>  <open_babel_can_smiles> 
COc1ccc(c2c1[C@H](N)CCC2)OC 
 
>  <mulliken_charges> 
32 
1   -0.209333 
2   -0.207962 
3   -0.272361 
4   -0.323294 
5   -0.26913 
6   -0.205407 
7   -0.21014 
8   0.03851 
9   -0.038722 
10   0.326987 
11   0.351486 
12   0.036254 
13   -0.702812 
14   -0.516978 
15   -0.506073 
16   0.164589 
17   0.147616 
18   0.147498 
19   0.165539 
20   0.142894 
21   0.148502 
22   0.121833 
23   0.132866 
24   0.152102 
25   0.156608 
26   0.119095 
27   0.131595 
28   0.12619 
29   0.12618 
30   0.146167 
31   0.292283 
32   0.287416 
 
>  <lowdin_charges> 
32 
1   -0.27918 
2   -0.274554 
3   -0.278675 
4   -0.27335 
5   -0.292963 
6   -0.207011 
7   -0.212284 
8   -0.031408 
9   -0.065493 
10   0.074763 
11   0.089893 
12   -0.037085 
13   -0.548687 
14   -0.206114 
15   -0.193535 
16   0.1601 
17   0.143477 
18   0.142841 
19   0.161875 
20   0.138245 
21   0.142761 
22   0.133067 
23   0.144965 
24   0.153877 
25   0.159042 
26   0.138862 
27   0.142186 
28   0.160744 
29   0.159138 
30   0.154412 
31   0.249866 
32   0.250224 
 
$$$$ 
 
