PCCDB-ID:  20734 
public computational chemistry database (PCCDB) project, http://pccdb.org 
 
 29 31  0  0  0  0  0  0  0  0999 V2000 
    0.9893    0.0265   -0.0744 C   0  0  0  0  0  0  0  0  0  0  0  0 
    2.4433    2.5945   -0.0769 C   0  0  0  0  0  0  0  0  0  0  0  0 
    9.3166   -1.2681   -0.0732 C   0  0  0  0  0  0  0  0  0  0  0  0 
    9.1322    0.1186   -0.0745 C   0  0  0  0  0  0  0  0  0  0  0  0 
    8.2146   -2.1312   -0.0719 C   0  0  0  0  0  0  0  0  0  0  0  0 
    7.8473    0.6668   -0.0745 C   0  0  0  0  0  0  0  0  0  0  0  0 
    3.2203   -1.1495   -0.0726 C   0  0  0  0  0  0  0  0  0  0  0  0 
    4.5965    1.2871   -0.0754 C   0  0  0  0  0  0  0  0  0  0  0  0 
    5.5900   -2.2950   -0.0708 C   0  0  0  0  0  0  0  0  0  0  0  0 
    2.4998    0.0535   -0.0741 C   0  0  0  0  0  0  0  0  0  0  0  0 
    3.1975    1.2850   -0.0754 C   0  0  0  0  0  0  0  0  0  0  0  0 
    6.9338   -1.5916   -0.0729 C   0  0  0  0  0  0  0  0  0  0  0  0 
    4.6096   -1.1391   -0.0729 C   0  0  0  0  0  0  0  0  0  0  0  0 
    6.7463   -0.1926   -0.0741 C   0  0  0  0  0  0  0  0  0  0  0  0 
    5.3037    0.0839   -0.0744 C   0  0  0  0  0  0  0  0  0  0  0  0 
    0.6128   -1.0012   -0.0745 H   0  0  0  0  0  0  0  0  0  0  0  0 
    0.5715    0.5331   -0.9546 H   0  0  0  0  0  0  0  0  0  0  0  0 
    0.5711    0.5331    0.8057 H   0  0  0  0  0  0  0  0  0  0  0  0 
    3.1326    3.4445   -0.0754 H   0  0  0  0  0  0  0  0  0  0  0  0 
    1.7924    2.6919    0.8017 H   0  0  0  0  0  0  0  0  0  0  0  0 
    1.7964    2.6921   -0.9585 H   0  0  0  0  0  0  0  0  0  0  0  0 
   10.3228   -1.6789   -0.0725 H   0  0  0  0  0  0  0  0  0  0  0  0 
    9.9976    0.7762   -0.0763 H   0  0  0  0  0  0  0  0  0  0  0  0 
    8.3643   -3.2087   -0.0701 H   0  0  0  0  0  0  0  0  0  0  0  0 
    7.7115    1.7455   -0.0732 H   0  0  0  0  0  0  0  0  0  0  0  0 
    2.6767   -2.0926   -0.0712 H   0  0  0  0  0  0  0  0  0  0  0  0 
    5.1264    2.2373   -0.0762 H   0  0  0  0  0  0  0  0  0  0  0  0 
    5.4661   -2.9404    0.8104 H   0  0  0  0  0  0  0  0  0  0  0  0 
    5.4650   -2.9454   -0.9482 H   0  0  0  0  0  0  0  0  0  0  0  0 
  1 10  1  0  0  0  0 
  1 18  1  0  0  0  0 
  2 11  1  0  0  0  0 
  2 19  1  0  0  0  0 
  2 20  1  0  0  0  0 
  3 22  1  0  0  0  0 
  3  5  2  0  0  0  0 
  4  6  2  0  0  0  0 
  4  3  1  0  0  0  0 
  5 24  1  0  0  0  0 
  6 14  1  0  0  0  0 
  6 25  1  0  0  0  0 
  7 26  1  0  0  0  0 
  8 11  2  0  0  0  0 
  8 15  1  0  0  0  0 
  9 28  1  0  0  0  0 
 10  7  2  0  0  0  0 
 11 10  1  0  0  0  0 
 12  5  1  0  0  0  0 
 12  9  1  0  0  0  0 
 13  7  1  0  0  0  0 
 13  9  1  0  0  0  0 
 14 12  2  0  0  0  0 
 15 14  1  0  0  0  0 
 15 13  2  0  0  0  0 
 16  1  1  0  0  0  0 
 17  1  1  0  0  0  0 
 21  2  1  0  0  0  0 
 23  4  1  0  0  0  0 
 27  8  1  0  0  0  0 
 29  9  1  0  0  0  0 
M  END 
>  <HBA> 
0 
 
>  <HBD> 
0 
 
>  <TPSA> 
0.0 
 
>  <cid> 
20734 
 
>  <dipole> 
0.76 
 
>  <excitation_energy_1> 
4.398 
 
>  <excitation_energy_2> 
4.578 
 
>  <excitation_energy_3> 
4.791 
 
>  <excitation_energy_4> 
5.338 
 
>  <homo_energy> 
-5.538 
 
>  <homo_lumo_gap> 
4.939 
 
>  <logP> 
3.875 
 
>  <lumo_energy> 
-0.599 
 
>  <melting_point> 
83.19 
 
>  <molecular_refractivity> 
64.82 
 
>  <oscillator_strength_1> 
0.1993 
 
>  <oscillator_strength_2> 
0.2986 
 
>  <oscillator_strength_3> 
0.0171 
 
>  <oscillator_strength_4> 
0.0019 
 
>  <open_babel_can_smiles> 
Cc1cc2c(cc1C)Cc1c2cccc1 
 
>  <mulliken_charges> 
29 
1   -0.536389 
2   -0.534984 
3   -0.1305 
4   -0.137812 
5   -0.203178 
6   -0.192128 
7   -0.269371 
8   -0.261214 
9   -0.421542 
10   0.137428 
11   0.129848 
12   0.106072 
13   0.114876 
14   0.084736 
15   0.094936 
16   0.154185 
17   0.158542 
18   0.158555 
19   0.154741 
20   0.15815 
21   0.158213 
22   0.124911 
23   0.12562 
24   0.122769 
25   0.126929 
26   0.115787 
27   0.120617 
28   0.170169 
29   0.170034 
 
>  <lowdin_charges> 
29 
1   -0.442072 
2   -0.441982 
3   -0.160363 
4   -0.158601 
5   -0.162273 
6   -0.161772 
7   -0.174686 
8   -0.173007 
9   -0.275339 
10   -0.007789 
11   -0.007963 
12   -0.005717 
13   -0.00862 
14   -0.010873 
15   -0.015227 
16   0.155383 
17   0.158301 
18   0.158295 
19   0.156985 
20   0.157871 
21   0.157882 
22   0.155601 
23   0.156921 
24   0.153403 
25   0.15438 
26   0.152239 
27   0.153168 
28   0.16796 
29   0.167895 
 
$$$$ 
 
