PCCDB-ID:  23296 
public computational chemistry database (PCCDB) project, http://pccdb.org 
 
 44 43  0  0  0  0  0  0  0  0999 V2000 
    0.6042    0.2628   -1.0741 C   0  0  0  0  0  0  0  0  0  0  0  0 
    2.2485   -0.1991    0.7841 C   0  0  0  0  0  0  0  0  0  0  0  0 
   11.3678   -2.6766   -6.7569 C   0  0  0  0  0  0  0  0  0  0  0  0 
   11.3567   -0.4163   -5.6347 C   0  0  0  0  0  0  0  0  0  0  0  0 
    7.3470   -1.6707   -1.2131 C   0  0  0  0  0  0  0  0  0  0  0  0 
    4.4469   -0.4601   -1.4743 C   0  0  0  0  0  0  0  0  0  0  0  0 
    8.8847   -1.4708   -3.9600 C   0  0  0  0  0  0  0  0  0  0  0  0 
    2.9252   -0.5504   -1.6612 C   0  0  0  0  0  0  0  0  0  0  0  0 
    9.4123   -2.0450   -5.2830 C   0  0  0  0  0  0  0  0  0  0  0  0 
    5.2202   -1.2304   -2.5549 C   0  0  0  0  0  0  0  0  0  0  0  0 
    7.3828   -1.7263   -3.7643 C   0  0  0  0  0  0  0  0  0  0  0  0 
    2.0856    0.2773   -0.6674 C   0  0  0  0  0  0  0  0  0  0  0  0 
   10.9285   -1.8869   -5.5144 C   0  0  0  0  0  0  0  0  0  0  0  0 
    6.7562   -1.0873   -2.5067 C   0  0  0  0  0  0  0  0  0  0  0  0 
   -0.0014    0.8765   -0.3965 H   0  0  0  0  0  0  0  0  0  0  0  0 
    0.2001   -0.7579   -1.0470 H   0  0  0  0  0  0  0  0  0  0  0  0 
    0.4648    0.6478   -2.0914 H   0  0  0  0  0  0  0  0  0  0  0  0 
    1.6312    0.3998    1.4644 H   0  0  0  0  0  0  0  0  0  0  0  0 
    3.2851   -0.1252    1.1297 H   0  0  0  0  0  0  0  0  0  0  0  0 
    1.9347   -1.2466    0.8880 H   0  0  0  0  0  0  0  0  0  0  0  0 
   12.4495   -2.5975   -6.9184 H   0  0  0  0  0  0  0  0  0  0  0  0 
   10.8694   -2.2972   -7.6588 H   0  0  0  0  0  0  0  0  0  0  0  0 
   11.1189   -3.7406   -6.6631 H   0  0  0  0  0  0  0  0  0  0  0  0 
   12.4385   -0.3348   -5.7952 H   0  0  0  0  0  0  0  0  0  0  0  0 
   11.1132    0.1607   -4.7362 H   0  0  0  0  0  0  0  0  0  0  0  0 
   10.8583    0.0654   -6.4867 H   0  0  0  0  0  0  0  0  0  0  0  0 
    6.9295   -1.1887   -0.3230 H   0  0  0  0  0  0  0  0  0  0  0  0 
    8.4337   -1.5423   -1.1698 H   0  0  0  0  0  0  0  0  0  0  0  0 
    7.1353   -2.7462   -1.1405 H   0  0  0  0  0  0  0  0  0  0  0  0 
    4.7191   -0.8387   -0.4819 H   0  0  0  0  0  0  0  0  0  0  0  0 
    4.7516    0.5975   -1.4948 H   0  0  0  0  0  0  0  0  0  0  0  0 
    9.0704   -0.3885   -3.9186 H   0  0  0  0  0  0  0  0  0  0  0  0 
    9.4547   -1.9120   -3.1309 H   0  0  0  0  0  0  0  0  0  0  0  0 
    2.6124   -1.6045   -1.5998 H   0  0  0  0  0  0  0  0  0  0  0  0 
    2.6784   -0.2221   -2.6817 H   0  0  0  0  0  0  0  0  0  0  0  0 
    8.8730   -1.5807   -6.1235 H   0  0  0  0  0  0  0  0  0  0  0  0 
    9.1650   -3.1162   -5.3217 H   0  0  0  0  0  0  0  0  0  0  0  0 
    4.8708   -0.8904   -3.5409 H   0  0  0  0  0  0  0  0  0  0  0  0 
    4.9590   -2.2986   -2.4950 H   0  0  0  0  0  0  0  0  0  0  0  0 
    7.1987   -2.8117   -3.7434 H   0  0  0  0  0  0  0  0  0  0  0  0 
    6.8493   -1.3477   -4.6486 H   0  0  0  0  0  0  0  0  0  0  0  0 
    2.4375    1.3195   -0.7221 H   0  0  0  0  0  0  0  0  0  0  0  0 
   11.4452   -2.3192   -4.6430 H   0  0  0  0  0  0  0  0  0  0  0  0 
    6.9900   -0.0103   -2.5304 H   0  0  0  0  0  0  0  0  0  0  0  0 
  1 16  1  0  0  0  0 
  1 12  1  0  0  0  0 
  1 15  1  0  0  0  0 
  2 20  1  0  0  0  0 
  2 19  1  0  0  0  0 
  2 18  1  0  0  0  0 
  3 23  1  0  0  0  0 
  3 13  1  0  0  0  0 
  4 13  1  0  0  0  0 
  4 25  1  0  0  0  0 
  5 28  1  0  0  0  0 
  5 29  1  0  0  0  0 
  5 27  1  0  0  0  0 
  6 30  1  0  0  0  0 
  7 32  1  0  0  0  0 
  7 11  1  0  0  0  0 
  7 33  1  0  0  0  0 
  8 34  1  0  0  0  0 
  8  6  1  0  0  0  0 
  8 12  1  0  0  0  0 
  9  7  1  0  0  0  0 
 10 14  1  0  0  0  0 
 10 39  1  0  0  0  0 
 10  6  1  0  0  0  0 
 11 40  1  0  0  0  0 
 11 14  1  0  0  0  0 
 12  2  1  0  0  0  0 
 13  9  1  0  0  0  0 
 13 43  1  0  0  0  0 
 14  5  1  0  0  0  0 
 17  1  1  0  0  0  0 
 21  3  1  0  0  0  0 
 22  3  1  0  0  0  0 
 24  4  1  0  0  0  0 
 26  4  1  0  0  0  0 
 31  6  1  0  0  0  0 
 35  8  1  0  0  0  0 
 36  9  1  0  0  0  0 
 37  9  1  0  0  0  0 
 38 10  1  0  0  0  0 
 41 11  1  0  0  0  0 
 42 12  1  0  0  0  0 
 44 14  1  0  0  0  0 
M  END 
>  <HBA> 
0 
 
>  <HBD> 
0 
 
>  <TPSA> 
0.0 
 
>  <cid> 
23296 
 
>  <dipole> 
0.11 
 
>  <excitation_energy_1> 
7.329 
 
>  <excitation_energy_2> 
7.526 
 
>  <excitation_energy_3> 
7.613 
 
>  <excitation_energy_4> 
7.732 
 
>  <homo_energy> 
-7.698 
 
>  <homo_lumo_gap> 
9.998 
 
>  <logP> 
5.275 
 
>  <lumo_energy> 
2.299 
 
>  <melting_point> 
-31.88 
 
>  <molecular_refractivity> 
69.41 
 
>  <oscillator_strength_1> 
0.0139 
 
>  <oscillator_strength_2> 
0.0006 
 
>  <oscillator_strength_3> 
0.0041 
 
>  <oscillator_strength_4> 
0.0044 
 
>  <open_babel_can_smiles> 
CC(CCCC(C)C)CCCC(C)C 
 
>  <mulliken_charges> 
44 
1   -0.441724 
2   -0.444407 
3   -0.441677 
4   -0.444502 
5   -0.454446 
6   -0.265632 
7   -0.265406 
8   -0.245899 
9   -0.246265 
10   -0.253635 
11   -0.253619 
12   -0.065242 
13   -0.065148 
14   -0.068369 
15   0.138126 
16   0.137731 
17   0.138594 
18   0.13871 
19   0.1442 
20   0.136872 
21   0.13813 
22   0.13767 
23   0.138533 
24   0.138747 
25   0.144362 
26   0.136849 
27   0.144418 
28   0.14464 
29   0.136367 
30   0.137201 
31   0.124476 
32   0.130566 
33   0.130757 
34   0.122605 
35   0.12373 
36   0.122275 
37   0.124417 
38   0.123925 
39   0.123311 
40   0.123002 
41   0.124475 
42   0.118601 
43   0.118489 
44   0.114192 
 
>  <lowdin_charges> 
44 
1   -0.444267 
2   -0.446218 
3   -0.441178 
4   -0.446602 
5   -0.445943 
6   -0.276804 
7   -0.277882 
8   -0.272364 
9   -0.274123 
10   -0.272695 
11   -0.273225 
12   -0.118562 
13   -0.120795 
14   -0.121134 
15   0.14822 
16   0.144112 
17   0.145821 
18   0.149031 
19   0.147135 
20   0.143362 
21   0.145049 
22   0.145243 
23   0.145054 
24   0.145867 
25   0.14867 
26   0.14538 
27   0.149427 
28   0.147208 
29   0.142762 
30   0.140514 
31   0.135061 
32   0.13676 
33   0.139709 
34   0.134775 
35   0.136986 
36   0.136627 
37   0.136905 
38   0.137392 
39   0.134852 
40   0.13418 
41   0.138945 
42   0.132353 
43   0.134302 
44   0.130093 
 
$$$$ 
 
