PCCDB-ID:  32740 
public computational chemistry database (PCCDB) project, http://pccdb.org 
 
 18 17  0  0  0  0  0  0  0  0999 V2000 
    2.8171   -1.0269    1.0623 C   0  0  0  0  0  0  0  0  0  0  0  0 
    3.1266   -0.2043    0.0612 C   0  0  0  0  0  0  0  0  0  0  0  0 
    4.4451    0.4932   -0.0646 C   0  0  0  0  0  0  0  0  0  0  0  0 
    3.7931    4.6507   -0.3110 C   0  0  0  0  0  0  0  0  0  0  0  0 
    5.1930    2.7612   -0.4223 C   0  0  0  0  0  0  0  0  0  0  0  0 
    5.0872    4.0218   -0.4885 N   0  0  0  0  0  0  0  0  0  0  0  0 
    3.9481    5.9331    0.2595 O   0  0  0  0  0  0  0  0  0  0  0  0 
    6.3929    2.1441   -0.5583 O   0  0  0  0  0  0  0  0  0  0  0  0 
    4.1716    1.9089   -0.2248 O   0  0  0  0  0  0  0  0  0  0  0  0 
    1.8639   -1.5464    1.1000 H   0  0  0  0  0  0  0  0  0  0  0  0 
    3.5069   -1.2161    1.8821 H   0  0  0  0  0  0  0  0  0  0  0  0 
    2.4172   -0.0216   -0.7447 H   0  0  0  0  0  0  0  0  0  0  0  0 
    4.9980    0.1435   -0.9439 H   0  0  0  0  0  0  0  0  0  0  0  0 
    5.0701    0.3343    0.8199 H   0  0  0  0  0  0  0  0  0  0  0  0 
    3.1362    4.0944    0.3678 H   0  0  0  0  0  0  0  0  0  0  0  0 
    3.2919    4.7139   -1.2928 H   0  0  0  0  0  0  0  0  0  0  0  0 
    4.6913    6.3458   -0.2095 H   0  0  0  0  0  0  0  0  0  0  0  0 
    7.0354    2.8651   -0.6785 H   0  0  0  0  0  0  0  0  0  0  0  0 
  1 10  1  0  0  0  0 
  1 11  1  0  0  0  0 
  2  1  2  0  0  0  0 
  3  2  1  0  0  0  0 
  3 14  1  0  0  0  0 
  4  7  1  0  0  0  0 
  4 15  1  0  0  0  0 
  5  9  1  0  0  0  0 
  6  5  2  0  0  0  0 
  6  4  1  0  0  0  0 
  8  5  1  0  0  0  0 
  9  3  1  0  0  0  0 
 12  2  1  0  0  0  0 
 13  3  1  0  0  0  0 
 16  4  1  0  0  0  0 
 17  7  1  0  0  0  0 
 18  8  1  0  0  0  0 
M  END 
>  <HBA> 
4 
 
>  <HBD> 
2 
 
>  <TPSA> 
58.56 
 
>  <cid> 
32740 
 
>  <dipole> 
3.19 
 
>  <excitation_energy_1> 
5.694 
 
>  <excitation_energy_2> 
6.085 
 
>  <excitation_energy_3> 
6.503 
 
>  <excitation_energy_4> 
6.603 
 
>  <homo_energy> 
-6.577 
 
>  <homo_lumo_gap> 
6.523 
 
>  <logP> 
0.239 
 
>  <lumo_energy> 
-0.054 
 
>  <melting_point> 
22.07 
 
>  <molecular_refractivity> 
31.31 
 
>  <oscillator_strength_1> 
0.004 
 
>  <oscillator_strength_2> 
0.0005 
 
>  <oscillator_strength_3> 
0.0008 
 
>  <oscillator_strength_4> 
0.0942 
 
>  <open_babel_can_smiles> 
O/C(=N/CO)/OCC=C 
 
>  <mulliken_charges> 
18 
1   -0.330656 
2   -0.057208 
3   -0.078043 
4   0.089804 
5   0.735519 
6   -0.529757 
7   -0.611594 
8   -0.605022 
9   -0.48043 
10   0.153534 
11   0.147275 
12   0.14837 
13   0.17128 
14   0.162678 
15   0.150807 
16   0.122758 
17   0.385687 
18   0.424998 
 
>  <lowdin_charges> 
18 
1   -0.317084 
2   -0.154333 
3   -0.116044 
4   -0.068794 
5   0.189023 
6   -0.287515 
7   -0.464261 
8   -0.368664 
9   -0.197146 
10   0.165697 
11   0.160451 
12   0.163044 
13   0.160073 
14   0.155873 
15   0.143274 
16   0.122171 
17   0.340493 
18   0.373743 
 
$$$$ 
 
