PCCDB-ID:  62444 
public computational chemistry database (PCCDB) project, http://pccdb.org 
 
 17 16  0  0  0  0  0  0  0  0999 V2000 
    0.8505    0.1350   -0.2104 C   0  0  0  0  0  0  0  0  0  0  0  0 
    7.0177   -0.9852    2.0593 C   0  0  0  0  0  0  0  0  0  0  0  0 
    2.3815    0.1668   -0.2326 C   0  0  0  0  0  0  0  0  0  0  0  0 
    2.9940   -0.5034    1.0011 C   0  0  0  0  0  0  0  0  0  0  0  0 
    4.5160   -0.4840    0.9977 C   0  0  0  0  0  0  0  0  0  0  0  0 
    5.1939   -0.0482    0.0940 O   0  0  0  0  0  0  0  0  0  0  0  0 
    5.2547   -1.1915    2.4914 S   0  0  0  0  0  0  0  0  0  0  0  0 
    0.4354    0.6184   -1.1016 H   0  0  0  0  0  0  0  0  0  0  0  0 
    0.4514    0.6576    0.6677 H   0  0  0  0  0  0  0  0  0  0  0  0 
    0.4719   -0.8943   -0.1835 H   0  0  0  0  0  0  0  0  0  0  0  0 
    7.5956   -1.4141    2.8808 H   0  0  0  0  0  0  0  0  0  0  0  0 
    7.2581    0.0732    1.9448 H   0  0  0  0  0  0  0  0  0  0  0  0 
    7.2412   -1.5101    1.1291 H   0  0  0  0  0  0  0  0  0  0  0  0 
    2.7368    1.2022   -0.2917 H   0  0  0  0  0  0  0  0  0  0  0  0 
    2.7569   -0.3321   -1.1334 H   0  0  0  0  0  0  0  0  0  0  0  0 
    2.6714   -1.5518    1.0757 H   0  0  0  0  0  0  0  0  0  0  0  0 
    2.6459   -0.0207    1.9249 H   0  0  0  0  0  0  0  0  0  0  0  0 
  1 10  1  0  0  0  0 
  1  9  1  0  0  0  0 
  2  7  1  0  0  0  0 
  2 11  1  0  0  0  0 
  3  1  1  0  0  0  0 
  3  4  1  0  0  0  0 
  4 16  1  0  0  0  0 
  4 17  1  0  0  0  0 
  5  4  1  0  0  0  0 
  5  7  1  0  0  0  0 
  6  5  2  0  0  0  0 
  8  1  1  0  0  0  0 
 12  2  1  0  0  0  0 
 13  2  1  0  0  0  0 
 14  3  1  0  0  0  0 
 15  3  1  0  0  0  0 
M  END 
>  <HBA> 
2 
 
>  <HBD> 
0 
 
>  <TPSA> 
42.37 
 
>  <cid> 
62444 
 
>  <dipole> 
0.86 
 
>  <excitation_energy_1> 
4.783 
 
>  <excitation_energy_2> 
5.48 
 
>  <excitation_energy_3> 
5.683 
 
>  <excitation_energy_4> 
6.272 
 
>  <homo_energy> 
-6.776 
 
>  <homo_lumo_gap> 
6.427 
 
>  <logP> 
1.676 
 
>  <lumo_energy> 
-0.348 
 
>  <melting_point> 
4.46 
 
>  <molecular_refractivity> 
33.94 
 
>  <oscillator_strength_1> 
0.0001 
 
>  <oscillator_strength_2> 
0.0481 
 
>  <oscillator_strength_3> 
0.0001 
 
>  <oscillator_strength_4> 
0.0748 
 
>  <open_babel_can_smiles> 
CCCC(=O)SC 
 
>  <mulliken_charges> 
17 
1   -0.447557 
2   -0.578199 
3   -0.24477 
4   -0.347707 
5   0.274205 
6   -0.421377 
7   0.091926 
8   0.150288 
9   0.143642 
10   0.143585 
11   0.180584 
12   0.19901 
13   0.199997 
14   0.152732 
15   0.154795 
16   0.175523 
17   0.173322 
 
>  <lowdin_charges> 
17 
1   -0.44499 
2   -0.536261 
3   -0.267243 
4   -0.303259 
5   0.048158 
6   -0.237102 
7   0.119397 
8   0.154679 
9   0.148086 
10   0.14656 
11   0.176962 
12   0.175182 
13   0.177597 
14   0.151017 
15   0.153634 
16   0.168732 
17   0.168852 
 
$$$$ 
 
