PCCDB-ID:  38497 
public computational chemistry database (PCCDB) project, http://pccdb.org 
 
 27 29  0  0  0  0  0  0  0  0999 V2000 
   -3.5543   -0.7511    0.0438 C   0  0  0  0  0  0  0  0  0  0  0  0 
   -3.6281    0.6665    0.0296 C   0  0  0  0  0  0  0  0  0  0  0  0 
   -2.3512   -1.4072    0.0184 C   0  0  0  0  0  0  0  0  0  0  0  0 
    2.5009    1.4303    0.1263 C   0  0  0  0  0  0  0  0  0  0  0  0 
    3.6580    0.7045    0.1046 C   0  0  0  0  0  0  0  0  0  0  0  0 
    0.0157    1.4775    0.0866 C   0  0  0  0  0  0  0  0  0  0  0  0 
    2.4092   -1.3800   -0.0134 C   0  0  0  0  0  0  0  0  0  0  0  0 
    1.2279    0.7863    0.0773 C   0  0  0  0  0  0  0  0  0  0  0  0 
    3.6259   -0.7293    0.0303 C   0  0  0  0  0  0  0  0  0  0  0  0 
   -1.1968    0.7839    0.0314 C   0  0  0  0  0  0  0  0  0  0  0  0 
   -2.4832    1.4364    0.0134 C   0  0  0  0  0  0  0  0  0  0  0  0 
   -1.1333   -0.6623    0.0078 C   0  0  0  0  0  0  0  0  0  0  0  0 
    1.1843   -0.6564    0.0163 C   0  0  0  0  0  0  0  0  0  0  0  0 
    4.8345   -1.4209    0.0666 N   0  0  0  0  0  0  0  0  0  0  0  0 
   -2.5379    2.8373    0.0398 N   0  0  0  0  0  0  0  0  0  0  0  0 
    0.0274   -1.3415   -0.0081 N   0  0  0  0  0  0  0  0  0  0  0  0 
   -4.4816   -1.3184    0.0555 H   0  0  0  0  0  0  0  0  0  0  0  0 
   -4.6012    1.1524    0.0172 H   0  0  0  0  0  0  0  0  0  0  0  0 
   -2.2797   -2.4894    0.0113 H   0  0  0  0  0  0  0  0  0  0  0  0 
    2.5380    2.5161    0.1801 H   0  0  0  0  0  0  0  0  0  0  0  0 
    4.6221    1.2055    0.1529 H   0  0  0  0  0  0  0  0  0  0  0  0 
    0.0306    2.5619    0.1663 H   0  0  0  0  0  0  0  0  0  0  0  0 
    2.3493   -2.4635   -0.0644 H   0  0  0  0  0  0  0  0  0  0  0  0 
    5.6316   -0.9276   -0.3153 H   0  0  0  0  0  0  0  0  0  0  0  0 
    4.7931   -2.3801   -0.2544 H   0  0  0  0  0  0  0  0  0  0  0  0 
   -3.4661    3.2038   -0.1386 H   0  0  0  0  0  0  0  0  0  0  0  0 
   -1.8617    3.2941   -0.5618 H   0  0  0  0  0  0  0  0  0  0  0  0 
  1 17  1  0  0  0  0 
  2  1  1  0  0  0  0 
  3  1  2  0  0  0  0 
  4 20  1  0  0  0  0 
  5  4  1  0  0  0  0 
  5 21  1  0  0  0  0 
  6 22  1  0  0  0  0 
  7 13  2  0  0  0  0 
  7  9  1  0  0  0  0 
  8  6  1  0  0  0  0 
  8  4  2  0  0  0  0 
  9 14  1  0  0  0  0 
  9  5  2  0  0  0  0 
 10  6  2  0  0  0  0 
 11  2  2  0  0  0  0 
 11 10  1  0  0  0  0 
 11 15  1  0  0  0  0 
 12  3  1  0  0  0  0 
 12 10  1  0  0  0  0 
 13  8  1  0  0  0  0 
 16 12  2  0  0  0  0 
 16 13  1  0  0  0  0 
 18  2  1  0  0  0  0 
 19  3  1  0  0  0  0 
 23  7  1  0  0  0  0 
 24 14  1  0  0  0  0 
 25 14  1  0  0  0  0 
 26 15  1  0  0  0  0 
 27 15  1  0  0  0  0 
M  END 
>  <HBA> 
3 
 
>  <HBD> 
2 
 
>  <TPSA> 
64.93 
 
>  <cid> 
38497 
 
>  <dipole> 
3.69 
 
>  <excitation_energy_1> 
2.874 
 
>  <excitation_energy_2> 
3.443 
 
>  <excitation_energy_3> 
3.842 
 
>  <excitation_energy_4> 
3.962 
 
>  <homo_energy> 
-4.944 
 
>  <homo_lumo_gap> 
3.369 
 
>  <logP> 
3.715 
 
>  <lumo_energy> 
-1.576 
 
>  <melting_point> 
208.81 
 
>  <molecular_refractivity> 
68.06 
 
>  <oscillator_strength_1> 
0.0437 
 
>  <oscillator_strength_2> 
0.0989 
 
>  <oscillator_strength_3> 
0.0006 
 
>  <oscillator_strength_4> 
0.0207 
 
>  <open_babel_can_smiles> 
Nc1ccc2c(c1)nc1c(c2)c(N)ccc1 
 
>  <mulliken_charges> 
27 
1   -0.138215 
2   -0.196697 
3   -0.154579 
4   -0.195799 
5   -0.171747 
6   -0.240362 
7   -0.224855 
8   0.159535 
9   0.32564 
10   0.117283 
11   0.241929 
12   0.24491 
13   0.261141 
14   -0.791496 
15   -0.786107 
16   -0.623101 
17   0.127111 
18   0.111968 
19   0.131389 
20   0.130471 
21   0.124443 
22   0.132296 
23   0.126047 
24   0.321904 
25   0.326852 
26   0.320558 
27   0.319481 
 
>  <lowdin_charges> 
27 
1   -0.142028 
2   -0.220363 
3   -0.183286 
4   -0.142971 
5   -0.184151 
6   -0.130279 
7   -0.216494 
8   -0.031985 
9   0.063909 
10   -0.048678 
11   0.058926 
12   0.05548 
13   0.055445 
14   -0.478605 
15   -0.489576 
16   -0.173077 
17   0.158246 
18   0.150971 
19   0.163571 
20   0.156184 
21   0.156283 
22   0.155621 
23   0.161228 
24   0.277988 
25   0.278328 
26   0.274158 
27   0.275156 
 
$$$$ 
 
