PCCDB-ID:  60238 
public computational chemistry database (PCCDB) project, http://pccdb.org 
 
 36 36  0  0  1  0  0  0  0  0999 V2000 
    7.7655    4.9145    2.3700 C   0  0  0  0  0  0  0  0  0  0  0  0 
    8.9695   -2.6034    5.7299 C   0  0  0  0  0  0  0  0  0  0  0  0 
    8.7259   -0.1174    6.1208 C   0  0  0  0  0  0  0  0  0  0  0  0 
   10.3408   -0.8086    1.5102 C   0  0  0  0  0  0  0  0  0  0  0  0 
    7.5134    3.4730    2.8235 C   0  0  0  0  0  0  0  0  0  0  0  0 
    6.8038    2.6295    1.7571 C   0  0  0  0  0  0  0  0  0  0  0  0 
    6.5144    1.1982    2.1831 C   0  0  0  0  0  0  0  0  0  0  0  0 
    9.9884   -0.9335    4.0619 C   0  0  0  0  0  0  0  0  0  0  0  0 
    8.8424   -1.2258    5.0764 C   0  0  0  0  0  0  0  0  0  0  0  0 
    9.5801   -1.4499    2.6687 C   0  0  2  0  0  0  0  0  0  0  0  0 
    9.6465   -2.8774    2.5946 O   0  0  0  0  0  0  0  0  0  0  0  0 
    6.7739   -1.8440    1.8939 O   0  0  0  0  0  0  0  0  0  0  0  0 
    7.7735    0.5152    2.4168 O   0  0  0  0  0  0  0  0  0  0  0  0 
    7.5851   -1.2357    4.3151 O   0  0  0  0  0  0  0  0  0  0  0  0 
    7.7573   -1.0875    2.7021 P   0  0  2  0  0  0  0  0  0  0  0  0 
    8.2712    5.4957    3.1492 H   0  0  0  0  0  0  0  0  0  0  0  0 
    6.8245    5.4256    2.1313 H   0  0  0  0  0  0  0  0  0  0  0  0 
    8.3945    4.9436    1.4719 H   0  0  0  0  0  0  0  0  0  0  0  0 
    9.8647   -2.6433    6.3621 H   0  0  0  0  0  0  0  0  0  0  0  0 
    9.0379   -3.3827    4.9682 H   0  0  0  0  0  0  0  0  0  0  0  0 
    8.0943   -2.7996    6.3573 H   0  0  0  0  0  0  0  0  0  0  0  0 
    9.6487   -0.0501    6.7090 H   0  0  0  0  0  0  0  0  0  0  0  0 
    7.8957   -0.3185    6.8057 H   0  0  0  0  0  0  0  0  0  0  0  0 
    8.5497    0.8497    5.6389 H   0  0  0  0  0  0  0  0  0  0  0  0 
   11.4121   -1.0384    1.5940 H   0  0  0  0  0  0  0  0  0  0  0  0 
   10.2235    0.2779    1.5006 H   0  0  0  0  0  0  0  0  0  0  0  0 
    9.9797   -1.2101    0.5585 H   0  0  0  0  0  0  0  0  0  0  0  0 
    6.9076    3.4761    3.7408 H   0  0  0  0  0  0  0  0  0  0  0  0 
    8.4655    2.9947    3.0842 H   0  0  0  0  0  0  0  0  0  0  0  0 
    7.4003    2.6123    0.8351 H   0  0  0  0  0  0  0  0  0  0  0  0 
    5.8408    3.0928    1.4983 H   0  0  0  0  0  0  0  0  0  0  0  0 
    5.9615    0.6547    1.4113 H   0  0  0  0  0  0  0  0  0  0  0  0 
    5.9276    1.1782    3.1105 H   0  0  0  0  0  0  0  0  0  0  0  0 
   10.9279   -1.3958    4.3906 H   0  0  0  0  0  0  0  0  0  0  0  0 
   10.1569    0.1477    4.0028 H   0  0  0  0  0  0  0  0  0  0  0  0 
   10.5875   -3.1200    2.6096 H   0  0  0  0  0  0  0  0  0  0  0  0 
  1  5  1  0  0  0  0 
  1 16  1  0  0  0  0 
  2 21  1  0  0  0  0 
  2 19  1  0  0  0  0 
  3 22  1  0  0  0  0 
  3 23  1  0  0  0  0 
  4 25  1  0  0  0  0 
  4 10  1  0  0  0  0 
  5 29  1  0  0  0  0 
  5 28  1  0  0  0  0 
  6  7  1  0  0  0  0 
  6  5  1  0  0  0  0 
  7 13  1  0  0  0  0 
  7 33  1  0  0  0  0 
  8 34  1  0  0  0  0 
  8  9  1  0  0  0  0 
  9  2  1  0  0  0  0 
  9  3  1  0  0  0  0 
 10 11  1  6  0  0  0 
 10 15  1  0  0  0  0 
 10  8  1  0  0  0  0 
 11 36  1  0  0  0  0 
 13 15  1  0  0  0  0 
 14  9  1  0  0  0  0 
 15 12  2  6  0  0  0 
 15 14  1  0  0  0  0 
 17  1  1  0  0  0  0 
 18  1  1  0  0  0  0 
 20  2  1  0  0  0  0 
 24  3  1  0  0  0  0 
 26  4  1  0  0  0  0 
 27  4  1  0  0  0  0 
 30  6  1  0  0  0  0 
 31  6  1  0  0  0  0 
 32  7  1  0  0  0  0 
 35  8  1  0  0  0  0 
M  END 
>  <HBA> 
4 
 
>  <HBD> 
1 
 
>  <TPSA> 
65.57 
 
>  <cid> 
60238 
 
>  <dipole> 
5.36 
 
>  <excitation_energy_1> 
6.459 
 
>  <excitation_energy_2> 
6.618 
 
>  <excitation_energy_3> 
6.749 
 
>  <excitation_energy_4> 
7.073 
 
>  <homo_energy> 
-7.249 
 
>  <homo_lumo_gap> 
8.482 
 
>  <logP> 
2.904 
 
>  <lumo_energy> 
1.233 
 
>  <melting_point> 
31.55 
 
>  <molecular_refractivity> 
60.14 
 
>  <oscillator_strength_1> 
0.0161 
 
>  <oscillator_strength_2> 
0.0029 
 
>  <oscillator_strength_3> 
0.0071 
 
>  <oscillator_strength_4> 
0.0153 
 
>  <open_babel_can_smiles> 
CCCCO[P@]1(=O)OC(C[C@@]1(C)O)(C)C 
 
>  <mulliken_charges> 
36 
1   -0.44265 
2   -0.453879 
3   -0.454766 
4   -0.475363 
5   -0.249839 
6   -0.271338 
7   -0.041231 
8   -0.337589 
9   0.315119 
10   0.088312 
11   -0.614877 
12   -0.527715 
13   -0.568861 
14   -0.568133 
15   1.166117 
16   0.144005 
17   0.14308 
18   0.143524 
19   0.13377 
20   0.181744 
21   0.159094 
22   0.143081 
23   0.160315 
24   0.158552 
25   0.135193 
26   0.171812 
27   0.180885 
28   0.131479 
29   0.145467 
30   0.145767 
31   0.138297 
32   0.176626 
33   0.150324 
34   0.142197 
35   0.161097 
36   0.390387 
 
>  <lowdin_charges> 
36 
1   -0.445761 
2   -0.454013 
3   -0.446956 
4   -0.449834 
5   -0.274699 
6   -0.281193 
7   -0.121026 
8   -0.304166 
9   0.143052 
10   -0.029339 
11   -0.435272 
12   -0.569132 
13   -0.422511 
14   -0.404446 
15   1.061159 
16   0.151748 
17   0.147153 
18   0.147652 
19   0.148609 
20   0.17067 
21   0.160911 
22   0.153633 
23   0.161022 
24   0.157842 
25   0.144996 
26   0.166854 
27   0.170753 
28   0.139845 
29   0.145152 
30   0.148829 
31   0.149528 
32   0.164833 
33   0.147243 
34   0.153724 
35   0.160837 
36   0.342303 
 
$$$$ 
 
