PCCDB-ID:  10045 
public computational chemistry database (PCCDB) project, http://pccdb.org 
 
 21 20  0  0  1  0  0  0  0  0999 V2000 
    2.9897    1.4341   -0.0957 C   0  0  0  0  0  0  0  0  0  0  0  0 
    2.6219   -2.3306    0.9519 C   0  0  0  0  0  0  0  0  0  0  0  0 
    4.6445   -0.8549    1.0951 C   0  0  0  0  0  0  0  0  0  0  0  0 
    2.6160   -0.3511    2.4969 C   0  0  0  0  0  0  0  0  0  0  0  0 
    2.5285   -0.0262   -0.0423 C   0  0  1  0  0  0  0  0  0  0  0  0 
    3.1040   -0.8774    1.1329 C   0  0  0  0  0  0  0  0  0  0  0  0 
    1.0974   -0.0860   -0.0865 O   0  0  0  0  0  0  0  0  0  0  0  0 
    4.0747    1.5225   -0.2081 H   0  0  0  0  0  0  0  0  0  0  0  0 
    2.7020    1.9827    0.8105 H   0  0  0  0  0  0  0  0  0  0  0  0 
    2.5169    1.9282   -0.9504 H   0  0  0  0  0  0  0  0  0  0  0  0 
    2.9704   -2.9619    1.7783 H   0  0  0  0  0  0  0  0  0  0  0  0 
    3.0088   -2.7588    0.0185 H   0  0  0  0  0  0  0  0  0  0  0  0 
    1.5301   -2.3780    0.9128 H   0  0  0  0  0  0  0  0  0  0  0  0 
    5.0540   -1.5651    1.8234 H   0  0  0  0  0  0  0  0  0  0  0  0 
    5.0512    0.1334    1.3366 H   0  0  0  0  0  0  0  0  0  0  0  0 
    5.0229   -1.1432    0.1059 H   0  0  0  0  0  0  0  0  0  0  0  0 
    3.0058   -0.9762    3.3087 H   0  0  0  0  0  0  0  0  0  0  0  0 
    1.5217   -0.3780    2.5693 H   0  0  0  0  0  0  0  0  0  0  0  0 
    2.9495    0.6756    2.6881 H   0  0  0  0  0  0  0  0  0  0  0  0 
    2.8398   -0.5169   -0.9735 H   0  0  0  0  0  0  0  0  0  0  0  0 
    0.7628    0.4659    0.6379 H   0  0  0  0  0  0  0  0  0  0  0  0 
  1  5  1  0  0  0  0 
  1  9  1  0  0  0  0 
  2  6  1  0  0  0  0 
  2 11  1  0  0  0  0 
  3  6  1  0  0  0  0 
  3 15  1  0  0  0  0 
  3 14  1  0  0  0  0 
  4 18  1  0  0  0  0 
  4 19  1  0  0  0  0 
  4 17  1  0  0  0  0 
  5 20  1  6  0  0  0 
  5  6  1  0  0  0  0 
  6  4  1  0  0  0  0 
  7  5  1  0  0  0  0 
  7 21  1  0  0  0  0 
  8  1  1  0  0  0  0 
 10  1  1  0  0  0  0 
 12  2  1  0  0  0  0 
 13  2  1  0  0  0  0 
 16  3  1  0  0  0  0 
M  END 
>  <HBA> 
1 
 
>  <HBD> 
1 
 
>  <TPSA> 
20.23 
 
>  <cid> 
10045 
 
>  <dipole> 
1.58 
 
>  <excitation_energy_1> 
6.456 
 
>  <excitation_energy_2> 
7.03 
 
>  <excitation_energy_3> 
7.259 
 
>  <excitation_energy_4> 
7.342 
 
>  <homo_energy> 
-7.021 
 
>  <homo_lumo_gap> 
8.852 
 
>  <logP> 
1.413 
 
>  <lumo_energy> 
1.831 
 
>  <melting_point> 
10.74 
 
>  <molecular_refractivity> 
31.86 
 
>  <oscillator_strength_1> 
0.005 
 
>  <oscillator_strength_2> 
0.0105 
 
>  <oscillator_strength_3> 
0.0273 
 
>  <oscillator_strength_4> 
0.0381 
 
>  <open_babel_can_smiles> 
C[C@@H](C(C)(C)C)O 
 
>  <mulliken_charges> 
21 
1   -0.478419 
2   -0.444504 
3   -0.453893 
4   -0.46924 
5   0.148326 
6   0.096742 
7   -0.62891 
8   0.150256 
9   0.135554 
10   0.158953 
11   0.13169 
12   0.134426 
13   0.160804 
14   0.141743 
15   0.141447 
16   0.139236 
17   0.146565 
18   0.133504 
19   0.140579 
20   0.129053 
21   0.386086 
 
>  <lowdin_charges> 
21 
1   -0.464793 
2   -0.443538 
3   -0.445416 
4   -0.449084 
5   -0.000208 
6   -0.001782 
7   -0.465761 
8   0.154262 
9   0.144668 
10   0.160117 
11   0.144731 
12   0.14578 
13   0.155984 
14   0.151178 
15   0.146588 
16   0.146823 
17   0.154055 
18   0.141454 
19   0.144765 
20   0.141659 
21   0.338517 
 
$$$$ 
 
