PCCDB-ID:  69393 
public computational chemistry database (PCCDB) project, http://pccdb.org 
 
 11 10  0  0  0  0  0  0  0  0999 V2000 
    1.0379   -0.0339   -0.0667 C   0  0  0  0  0  0  0  0  0  0  0  0 
    5.6081   -0.4952   -1.3711 C   0  0  0  0  0  0  0  0  0  0  0  0 
    2.2438   -0.0417   -0.0864 C   0  0  0  0  0  0  0  0  0  0  0  0 
    3.7056   -0.0406   -0.0796 C   0  0  0  0  0  0  0  0  0  0  0  0 
    4.1961   -0.4839   -1.3335 O   0  0  0  0  0  0  0  0  0  0  0  0 
   -0.0284   -0.0282   -0.0566 H   0  0  0  0  0  0  0  0  0  0  0  0 
    5.8958   -0.8464   -2.3648 H   0  0  0  0  0  0  0  0  0  0  0  0 
    6.0327   -1.1746   -0.6139 H   0  0  0  0  0  0  0  0  0  0  0  0 
    6.0313    0.5099   -1.2096 H   0  0  0  0  0  0  0  0  0  0  0  0 
    4.0746   -0.6933    0.7317 H   0  0  0  0  0  0  0  0  0  0  0  0 
    4.0758    0.9763    0.1408 H   0  0  0  0  0  0  0  0  0  0  0  0 
  1  6  1  0  0  0  0 
  2  5  1  0  0  0  0 
  2  9  1  0  0  0  0 
  2  8  1  0  0  0  0 
  3  4  1  0  0  0  0 
  3  1  3  0  0  0  0 
  4 11  1  0  0  0  0 
  4 10  1  0  0  0  0 
  5  4  1  0  0  0  0 
  7  2  1  0  0  0  0 
M  END 
>  <HBA> 
1 
 
>  <HBD> 
0 
 
>  <TPSA> 
9.23 
 
>  <cid> 
69393 
 
>  <dipole> 
1.46 
 
>  <excitation_energy_1> 
6.082 
 
>  <excitation_energy_2> 
6.55 
 
>  <excitation_energy_3> 
6.611 
 
>  <excitation_energy_4> 
6.794 
 
>  <homo_energy> 
-6.969 
 
>  <homo_lumo_gap> 
7.856 
 
>  <logP> 
0.266 
 
>  <lumo_energy> 
0.887 
 
>  <melting_point> 
-16.84 
 
>  <molecular_refractivity> 
20.59 
 
>  <oscillator_strength_1> 
0.0006 
 
>  <oscillator_strength_2> 
0.0103 
 
>  <oscillator_strength_3> 
0.0089 
 
>  <oscillator_strength_4> 
0.0005 
 
>  <open_babel_can_smiles> 
COCC#C 
 
>  <mulliken_charges> 
11 
1   -0.504865 
2   -0.189171 
3   0.359246 
4   -0.140804 
5   -0.451304 
6   0.194411 
7   0.16657 
8   0.131603 
9   0.131581 
10   0.151378 
11   0.151354 
 
>  <lowdin_charges> 
11 
1   -0.232634 
2   -0.279557 
3   -0.040961 
4   -0.112812 
5   -0.261894 
6   0.204873 
7   0.159521 
8   0.133851 
9   0.132196 
10   0.149643 
11   0.147774 
 
$$$$ 
 
