PCCDB-ID:  44150 
public computational chemistry database (PCCDB) project, http://pccdb.org 
 
 27 29  0  0  0  0  0  0  0  0999 V2000 
   -3.4863    0.0609   -0.2020 C   0  0  0  0  0  0  0  0  0  0  0  0 
    3.4448    0.0720   -0.2985 C   0  0  0  0  0  0  0  0  0  0  0  0 
   -2.6538   -1.2141    0.1074 C   0  0  0  0  0  0  0  0  0  0  0  0 
    2.6191   -1.2061    0.0195 C   0  0  0  0  0  0  0  0  0  0  0  0 
   -2.5692    1.2621    0.1520 C   0  0  0  0  0  0  0  0  0  0  0  0 
    2.5326    1.2754    0.0706 C   0  0  0  0  0  0  0  0  0  0  0  0 
   -1.2266   -0.7198    0.0639 C   0  0  0  0  0  0  0  0  0  0  0  0 
    1.1969   -0.7094    0.0274 C   0  0  0  0  0  0  0  0  0  0  0  0 
   -1.1990    0.6405    0.0856 C   0  0  0  0  0  0  0  0  0  0  0  0 
    1.1637    0.6478    0.0485 C   0  0  0  0  0  0  0  0  0  0  0  0 
   -0.0087   -1.5324    0.0564 C   0  0  0  0  0  0  0  0  0  0  0  0 
    0.0856   -2.8278    0.0725 N   0  0  0  0  0  0  0  0  0  0  0  0 
   -0.0222    1.3514    0.1007 N   0  0  0  0  0  0  0  0  0  0  0  0 
   -4.4366    0.0890    0.3393 H   0  0  0  0  0  0  0  0  0  0  0  0 
   -3.7189    0.0910   -1.2720 H   0  0  0  0  0  0  0  0  0  0  0  0 
    3.6645    0.1066   -1.3713 H   0  0  0  0  0  0  0  0  0  0  0  0 
    4.4027    0.1029    0.2294 H   0  0  0  0  0  0  0  0  0  0  0  0 
   -2.8486   -2.0158   -0.6167 H   0  0  0  0  0  0  0  0  0  0  0  0 
   -2.8987   -1.6266    1.0981 H   0  0  0  0  0  0  0  0  0  0  0  0 
    2.8833   -1.6369    0.9961 H   0  0  0  0  0  0  0  0  0  0  0  0 
    2.7722   -2.0052   -0.7138 H   0  0  0  0  0  0  0  0  0  0  0  0 
   -2.7705    1.6462    1.1633 H   0  0  0  0  0  0  0  0  0  0  0  0 
   -2.6950    2.1074   -0.5376 H   0  0  0  0  0  0  0  0  0  0  0  0 
    2.6349    2.1147   -0.6304 H   0  0  0  0  0  0  0  0  0  0  0  0 
    2.7611    1.6706    1.0720 H   0  0  0  0  0  0  0  0  0  0  0  0 
   -0.8511   -3.2452    0.0922 H   0  0  0  0  0  0  0  0  0  0  0  0 
   -0.0272    2.3596    0.0567 H   0  0  0  0  0  0  0  0  0  0  0  0 
  1  3  1  0  0  0  0 
  1  5  1  0  0  0  0 
  1 14  1  0  0  0  0 
  2  4  1  0  0  0  0 
  2  6  1  0  0  0  0 
  2 17  1  0  0  0  0 
  3 19  1  0  0  0  0 
  4  8  1  0  0  0  0 
  4 20  1  0  0  0  0 
  5 22  1  0  0  0  0 
  6 25  1  0  0  0  0 
  7  9  2  0  0  0  0 
  7  3  1  0  0  0  0 
  8 10  2  0  0  0  0 
  8 11  1  0  0  0  0 
  9 13  1  0  0  0  0 
  9  5  1  0  0  0  0 
 10  6  1  0  0  0  0 
 10 13  1  0  0  0  0 
 11  7  1  0  0  0  0 
 11 12  2  0  0  0  0 
 12 26  1  0  0  0  0 
 15  1  1  0  0  0  0 
 16  2  1  0  0  0  0 
 18  3  1  0  0  0  0 
 21  4  1  0  0  0  0 
 23  5  1  0  0  0  0 
 24  6  1  0  0  0  0 
 27 13  1  0  0  0  0 
M  END 
>  <HBA> 
2 
 
>  <HBD> 
1 
 
>  <TPSA> 
38.91 
 
>  <cid> 
44150 
 
>  <dipole> 
5.31 
 
>  <excitation_energy_1> 
4.137 
 
>  <excitation_energy_2> 
4.562 
 
>  <excitation_energy_3> 
4.76 
 
>  <excitation_energy_4> 
4.849 
 
>  <homo_energy> 
-4.879 
 
>  <homo_lumo_gap> 
5.048 
 
>  <logP> 
2.222 
 
>  <lumo_energy> 
0.169 
 
>  <melting_point> 
131.16 
 
>  <molecular_refractivity> 
53.89 
 
>  <oscillator_strength_1> 
0.0029 
 
>  <oscillator_strength_2> 
0.045 
 
>  <oscillator_strength_3> 
0.0766 
 
>  <oscillator_strength_4> 
0.1277 
 
>  <open_babel_can_smiles> 
N=c1c2CCCc2[nH]c2c1CCC2 
 
>  <mulliken_charges> 
27 
1   -0.278598 
2   -0.282346 
3   -0.354353 
4   -0.331646 
5   -0.346751 
6   -0.345732 
7   0.070646 
8   0.099813 
9   0.315278 
10   0.300611 
11   0.227086 
12   -0.687927 
13   -0.764699 
14   0.141391 
15   0.152549 
16   0.148853 
17   0.138532 
18   0.147642 
19   0.150215 
20   0.152111 
21   0.162855 
22   0.158051 
23   0.144775 
24   0.141504 
25   0.155156 
26   0.260644 
27   0.324342 
 
>  <lowdin_charges> 
27 
1   -0.26669 
2   -0.269608 
3   -0.275442 
4   -0.265165 
5   -0.281225 
6   -0.281419 
7   -0.080154 
8   -0.051252 
9   0.032319 
10   0.024895 
11   0.035282 
12   -0.449447 
13   -0.19832 
14   0.147986 
15   0.149012 
16   0.147077 
17   0.146553 
18   0.149989 
19   0.147442 
20   0.15197 
21   0.161167 
22   0.152848 
23   0.149355 
24   0.147345 
25   0.151218 
26   0.235644 
27   0.288623 
 
$$$$ 
 
