PCCDB-ID:  8058 
public computational chemistry database (PCCDB) project, http://pccdb.org 
 
 20 19  0  0  0  0  0  0  0  0999 V2000 
    0.9106    0.0671   -0.0254 C   0  0  0  0  0  0  0  0  0  0  0  0 
    6.6152   -1.2869    2.6917 C   0  0  0  0  0  0  0  0  0  0  0  0 
    2.4416    0.0546    0.0301 C   0  0  0  0  0  0  0  0  0  0  0  0 
    5.0842   -1.2832    2.6313 C   0  0  0  0  0  0  0  0  0  0  0  0 
    2.9966   -0.5985    1.3026 C   0  0  0  0  0  0  0  0  0  0  0  0 
    4.5291   -0.6132    1.3677 C   0  0  0  0  0  0  0  0  0  0  0  0 
    0.5463    0.5362   -0.9467 H   0  0  0  0  0  0  0  0  0  0  0  0 
    0.4877    0.6226    0.8209 H   0  0  0  0  0  0  0  0  0  0  0  0 
    0.5043   -0.9512    0.0131 H   0  0  0  0  0  0  0  0  0  0  0  0 
    6.9796   -1.7758    3.6025 H   0  0  0  0  0  0  0  0  0  0  0  0 
    7.0148   -0.2654    2.6791 H   0  0  0  0  0  0  0  0  0  0  0  0 
    7.0444   -1.8191    1.8337 H   0  0  0  0  0  0  0  0  0  0  0  0 
    2.8191    1.0846   -0.0419 H   0  0  0  0  0  0  0  0  0  0  0  0 
    2.8357   -0.4746   -0.8493 H   0  0  0  0  0  0  0  0  0  0  0  0 
    4.6841   -0.7709    3.5179 H   0  0  0  0  0  0  0  0  0  0  0  0 
    4.7130   -2.3166    2.6853 H   0  0  0  0  0  0  0  0  0  0  0  0 
    2.6197   -1.6298    1.3744 H   0  0  0  0  0  0  0  0  0  0  0  0 
    2.6005   -0.0700    2.1827 H   0  0  0  0  0  0  0  0  0  0  0  0 
    4.9260   -1.1291    0.4805 H   0  0  0  0  0  0  0  0  0  0  0  0 
    4.9051    0.4194    1.3102 H   0  0  0  0  0  0  0  0  0  0  0  0 
  1  9  1  0  0  0  0 
  1  3  1  0  0  0  0 
  1  8  1  0  0  0  0 
  2 10  1  0  0  0  0 
  3  5  1  0  0  0  0 
  4 16  1  0  0  0  0 
  4  2  1  0  0  0  0 
  4 15  1  0  0  0  0 
  5  6  1  0  0  0  0 
  5 17  1  0  0  0  0 
  5 18  1  0  0  0  0 
  6  4  1  0  0  0  0 
  7  1  1  0  0  0  0 
 11  2  1  0  0  0  0 
 12  2  1  0  0  0  0 
 13  3  1  0  0  0  0 
 14  3  1  0  0  0  0 
 19  6  1  0  0  0  0 
 20  6  1  0  0  0  0 
M  END 
>  <HBA> 
0 
 
>  <HBD> 
0 
 
>  <TPSA> 
0.0 
 
>  <cid> 
8058 
 
>  <dipole> 
0.0 
 
>  <excitation_energy_1> 
8.111 
 
>  <excitation_energy_2> 
8.234 
 
>  <excitation_energy_3> 
8.322 
 
>  <excitation_energy_4> 
8.39 
 
>  <homo_energy> 
-8.28 
 
>  <homo_lumo_gap> 
10.806 
 
>  <logP> 
2.587 
 
>  <lumo_energy> 
2.525 
 
>  <melting_point> 
-26.56 
 
>  <molecular_refractivity> 
30.96 
 
>  <oscillator_strength_1> 
0.0 
 
>  <oscillator_strength_2> 
0.0674 
 
>  <oscillator_strength_3> 
0.0078 
 
>  <oscillator_strength_4> 
0.0 
 
>  <open_babel_can_smiles> 
CCCCCC 
 
>  <mulliken_charges> 
20 
1   -0.441275 
2   -0.441218 
3   -0.246707 
4   -0.246742 
5   -0.245337 
6   -0.245378 
7   0.140925 
8   0.140812 
9   0.140843 
10   0.140912 
11   0.140852 
12   0.140783 
13   0.129593 
14   0.129551 
15   0.12954 
16   0.129609 
17   0.125792 
18   0.125822 
19   0.125753 
20   0.125869 
 
>  <lowdin_charges> 
20 
1   -0.445143 
2   -0.445112 
3   -0.271547 
4   -0.271457 
5   -0.274363 
6   -0.274297 
7   0.14914 
8   0.146784 
9   0.145199 
10   0.149214 
11   0.145161 
12   0.14672 
13   0.137463 
14   0.139044 
15   0.139013 
16   0.137394 
17   0.135879 
18   0.137547 
19   0.137445 
20   0.135917 
 
$$$$ 
 
