PCCDB-ID:  21029 
public computational chemistry database (PCCDB) project, http://pccdb.org 
 
 34 35  0  0  0  0  0  0  0  0999 V2000 
    0.9938   -0.0867    0.2523 C   0  0  0  0  0  0  0  0  0  0  0  0 
   11.0725   -0.0673   -1.2209 C   0  0  0  0  0  0  0  0  0  0  0  0 
    2.4306    2.4574   -0.2428 C   0  0  0  0  0  0  0  0  0  0  0  0 
    9.3941   -2.2432   -2.3361 C   0  0  0  0  0  0  0  0  0  0  0  0 
    3.2221   -1.2580    0.0517 C   0  0  0  0  0  0  0  0  0  0  0  0 
    8.9529    0.9411   -0.2901 C   0  0  0  0  0  0  0  0  0  0  0  0 
    4.6009   -1.2711   -0.1479 C   0  0  0  0  0  0  0  0  0  0  0  0 
    7.5758    0.9543   -0.0792 C   0  0  0  0  0  0  0  0  0  0  0  0 
    4.5572    1.1158   -0.3966 C   0  0  0  0  0  0  0  0  0  0  0  0 
    7.3979   -1.0935   -1.3183 C   0  0  0  0  0  0  0  0  0  0  0  0 
    2.4876   -0.0682    0.0322 C   0  0  0  0  0  0  0  0  0  0  0  0 
    9.5771   -0.0810   -1.0124 C   0  0  0  0  0  0  0  0  0  0  0  0 
    3.1751    1.1432   -0.1976 C   0  0  0  0  0  0  0  0  0  0  0  0 
    8.7771   -1.1190   -1.5367 C   0  0  0  0  0  0  0  0  0  0  0  0 
    5.2986   -0.0772   -0.3770 C   0  0  0  0  0  0  0  0  0  0  0  0 
    6.7675   -0.0696   -0.5920 C   0  0  0  0  0  0  0  0  0  0  0  0 
    0.6321   -1.1066    0.4153 H   0  0  0  0  0  0  0  0  0  0  0  0 
    0.4498    0.3256   -0.6079 H   0  0  0  0  0  0  0  0  0  0  0  0 
    0.7022    0.5136    1.1242 H   0  0  0  0  0  0  0  0  0  0  0  0 
   11.5281    0.8082   -0.7480 H   0  0  0  0  0  0  0  0  0  0  0  0 
   11.3360   -0.0447   -2.2866 H   0  0  0  0  0  0  0  0  0  0  0  0 
   11.5515   -0.9607   -0.7987 H   0  0  0  0  0  0  0  0  0  0  0  0 
    3.1129    3.2913   -0.4332 H   0  0  0  0  0  0  0  0  0  0  0  0 
    1.9090    2.6618    0.7015 H   0  0  0  0  0  0  0  0  0  0  0  0 
    1.6666    2.4651   -1.0313 H   0  0  0  0  0  0  0  0  0  0  0  0 
    8.6317   -2.9522   -2.6728 H   0  0  0  0  0  0  0  0  0  0  0  0 
   10.1328   -2.8030   -1.7474 H   0  0  0  0  0  0  0  0  0  0  0  0 
    9.9192   -1.8705   -3.2254 H   0  0  0  0  0  0  0  0  0  0  0  0 
    2.7025   -2.1957    0.2374 H   0  0  0  0  0  0  0  0  0  0  0  0 
    9.5623    1.7406    0.1259 H   0  0  0  0  0  0  0  0  0  0  0  0 
    5.1421   -2.2119   -0.0992 H   0  0  0  0  0  0  0  0  0  0  0  0 
    7.1301    1.7506    0.5102 H   0  0  0  0  0  0  0  0  0  0  0  0 
    5.0731    2.0514   -0.5992 H   0  0  0  0  0  0  0  0  0  0  0  0 
    6.7877   -1.8836   -1.7496 H   0  0  0  0  0  0  0  0  0  0  0  0 
  1 17  1  0  0  0  0 
  1 19  1  0  0  0  0 
  2 12  1  0  0  0  0 
  2 22  1  0  0  0  0 
  2 20  1  0  0  0  0 
  3 13  1  0  0  0  0 
  3 24  1  0  0  0  0 
  4 27  1  0  0  0  0 
  4 14  1  0  0  0  0 
  5 29  1  0  0  0  0 
  6  8  1  0  0  0  0 
  6 30  1  0  0  0  0 
  7 31  1  0  0  0  0 
  7  5  2  0  0  0  0 
  8 32  1  0  0  0  0 
  9 15  2  0  0  0  0 
  9 13  1  0  0  0  0 
 10 16  1  0  0  0  0 
 11  5  1  0  0  0  0 
 11  1  1  0  0  0  0 
 12  6  2  0  0  0  0 
 13 11  2  0  0  0  0 
 14 10  2  0  0  0  0 
 14 12  1  0  0  0  0 
 15  7  1  0  0  0  0 
 16 15  1  0  0  0  0 
 16  8  2  0  0  0  0 
 18  1  1  0  0  0  0 
 21  2  1  0  0  0  0 
 23  3  1  0  0  0  0 
 25  3  1  0  0  0  0 
 26  4  1  0  0  0  0 
 28  4  1  0  0  0  0 
 33  9  1  0  0  0  0 
 34 10  1  0  0  0  0 
M  END 
>  <HBA> 
0 
 
>  <HBD> 
0 
 
>  <TPSA> 
0.0 
 
>  <cid> 
21029 
 
>  <dipole> 
0.18 
 
>  <excitation_energy_1> 
4.674 
 
>  <excitation_energy_2> 
4.748 
 
>  <excitation_energy_3> 
4.846 
 
>  <excitation_energy_4> 
5.36 
 
>  <homo_energy> 
-5.63 
 
>  <homo_lumo_gap> 
5.159 
 
>  <logP> 
4.587 
 
>  <lumo_energy> 
-0.471 
 
>  <melting_point> 
59.94 
 
>  <molecular_refractivity> 
71.74 
 
>  <oscillator_strength_1> 
0.5498 
 
>  <oscillator_strength_2> 
0.0001 
 
>  <oscillator_strength_3> 
0.0254 
 
>  <oscillator_strength_4> 
0.0017 
 
>  <open_babel_can_smiles> 
Cc1ccc(cc1C)c1ccc(c(c1)C)C 
 
>  <mulliken_charges> 
34 
1   -0.533119 
2   -0.533028 
3   -0.533367 
4   -0.533312 
5   -0.191178 
6   -0.191072 
7   -0.176545 
8   -0.176376 
9   -0.243119 
10   -0.242821 
11   0.134202 
12   0.133992 
13   0.133186 
14   0.133006 
15   0.098664 
16   0.098282 
17   0.154005 
18   0.158498 
19   0.158508 
20   0.154023 
21   0.158481 
22   0.15852 
23   0.154953 
24   0.158162 
25   0.158796 
26   0.154978 
27   0.158253 
28   0.158649 
29   0.119154 
30   0.119103 
31   0.126795 
32   0.126786 
33   0.122485 
34   0.122458 
 
>  <lowdin_charges> 
34 
1   -0.442266 
2   -0.441457 
3   -0.442176 
4   -0.443768 
5   -0.166562 
6   -0.167301 
7   -0.167622 
8   -0.168033 
9   -0.173072 
10   -0.173815 
11   -0.009401 
12   -0.010078 
13   -0.007434 
14   -0.007004 
15   -0.003554 
16   -0.004205 
17   0.155948 
18   0.158592 
19   0.158293 
20   0.157381 
21   0.156386 
22   0.158311 
23   0.157543 
24   0.157815 
25   0.158406 
26   0.157948 
27   0.159023 
28   0.158359 
29   0.153058 
30   0.153916 
31   0.1576 
32   0.158405 
33   0.154944 
34   0.155822 
 
$$$$ 
 
