PCCDB-ID:  65538 
public computational chemistry database (PCCDB) project, http://pccdb.org 
 
 31 32  0  0  0  0  0  0  0  0999 V2000 
    2.4369   -1.0886   -1.8745 C   0  0  0  0  0  0  0  0  0  0  0  0 
    4.6541   -0.2359   -1.5582 C   0  0  0  0  0  0  0  0  0  0  0  0 
    1.3037    8.1422   -1.9772 C   0  0  0  0  0  0  0  0  0  0  0  0 
    1.9384    9.0913   -1.1574 C   0  0  0  0  0  0  0  0  0  0  0  0 
    1.6304    6.7944   -1.9037 C   0  0  0  0  0  0  0  0  0  0  0  0 
    2.9143    8.7002   -0.2483 C   0  0  0  0  0  0  0  0  0  0  0  0 
    3.3243    2.4718   -1.0312 C   0  0  0  0  0  0  0  0  0  0  0  0 
    2.7857    1.2939   -1.8470 C   0  0  0  0  0  0  0  0  0  0  0  0 
    4.0941    5.0404    0.2457 C   0  0  0  0  0  0  0  0  0  0  0  0 
    2.6157    6.3698   -0.9912 C   0  0  0  0  0  0  0  0  0  0  0  0 
    3.1302    5.0322   -0.7278 C   0  0  0  0  0  0  0  0  0  0  0  0 
    2.6727    3.7980   -1.4176 C   0  0  0  0  0  0  0  0  0  0  0  0 
    3.2415    7.3432   -0.1757 C   0  0  0  0  0  0  0  0  0  0  0  0 
    3.2349    0.0019   -1.3266 N   0  0  0  0  0  0  0  0  0  0  0  0 
    1.7940    3.8378   -2.2701 O   0  0  0  0  0  0  0  0  0  0  0  0 
    4.4368    6.6130    0.8913 S   0  0  0  0  0  0  0  0  0  0  0  0 
    2.7451   -2.0349   -1.4163 H   0  0  0  0  0  0  0  0  0  0  0  0 
    2.5331   -1.1950   -2.9733 H   0  0  0  0  0  0  0  0  0  0  0  0 
    1.3792   -0.9264   -1.6413 H   0  0  0  0  0  0  0  0  0  0  0  0 
    4.9336   -1.2098   -1.1420 H   0  0  0  0  0  0  0  0  0  0  0  0 
    5.2602    0.5233   -1.0540 H   0  0  0  0  0  0  0  0  0  0  0  0 
    4.9254   -0.2323   -2.6333 H   0  0  0  0  0  0  0  0  0  0  0  0 
    0.5434    8.4684   -2.6815 H   0  0  0  0  0  0  0  0  0  0  0  0 
    1.6656   10.1403   -1.2325 H   0  0  0  0  0  0  0  0  0  0  0  0 
    1.1433    6.0603   -2.5325 H   0  0  0  0  0  0  0  0  0  0  0  0 
    3.4086    9.4283    0.3882 H   0  0  0  0  0  0  0  0  0  0  0  0 
    4.4110    2.5750   -1.1443 H   0  0  0  0  0  0  0  0  0  0  0  0 
    3.1461    2.2784    0.0355 H   0  0  0  0  0  0  0  0  0  0  0  0 
    3.0494    1.4274   -2.9138 H   0  0  0  0  0  0  0  0  0  0  0  0 
    1.6931    1.3179   -1.7989 H   0  0  0  0  0  0  0  0  0  0  0  0 
    4.6369    4.1900    0.6355 H   0  0  0  0  0  0  0  0  0  0  0  0 
  1 19  1  0  0  0  0 
  1 17  1  0  0  0  0 
  1 14  1  0  0  0  0 
  2 14  1  0  0  0  0 
  2 20  1  0  0  0  0 
  2 21  1  0  0  0  0 
  3  5  2  0  0  0  0 
  3  4  1  0  0  0  0 
  4  6  2  0  0  0  0 
  5 10  1  0  0  0  0 
  6 13  1  0  0  0  0 
  6 26  1  0  0  0  0 
  7 28  1  0  0  0  0 
  8 30  1  0  0  0  0 
  8 14  1  0  0  0  0 
  8  7  1  0  0  0  0 
  9 31  1  0  0  0  0 
  9 16  1  0  0  0  0 
 10 11  1  0  0  0  0 
 10 13  2  0  0  0  0 
 11  9  2  0  0  0  0 
 12  7  1  0  0  0  0 
 12 11  1  0  0  0  0 
 13 16  1  0  0  0  0 
 15 12  2  0  0  0  0 
 18  1  1  0  0  0  0 
 22  2  1  0  0  0  0 
 23  3  1  0  0  0  0 
 24  4  1  0  0  0  0 
 25  5  1  0  0  0  0 
 27  7  1  0  0  0  0 
 29  8  1  0  0  0  0 
M  END 
>  <HBA> 
3 
 
>  <HBD> 
0 
 
>  <TPSA> 
48.55 
 
>  <cid> 
65538 
 
>  <dipole> 
1.77 
 
>  <excitation_energy_1> 
3.49 
 
>  <excitation_energy_2> 
3.831 
 
>  <excitation_energy_3> 
4.073 
 
>  <excitation_energy_4> 
4.373 
 
>  <homo_energy> 
-5.758 
 
>  <homo_lumo_gap> 
4.185 
 
>  <logP> 
3.036 
 
>  <lumo_energy> 
-1.573 
 
>  <melting_point> 
83.42 
 
>  <molecular_refractivity> 
69.34 
 
>  <oscillator_strength_1> 
0.001 
 
>  <oscillator_strength_2> 
0.0004 
 
>  <oscillator_strength_3> 
0.1135 
 
>  <oscillator_strength_4> 
0.0295 
 
>  <open_babel_can_smiles> 
CN(CCC(=O)c1csc2c1cccc2)C 
 
>  <mulliken_charges> 
31 
1   -0.29368 
2   -0.300302 
3   -0.145885 
4   -0.116509 
5   -0.164879 
6   -0.16879 
7   -0.383066 
8   -0.106418 
9   -0.418186 
10   0.111036 
11   0.095329 
12   0.422207 
13   -0.159146 
14   -0.374737 
15   -0.476829 
16   0.259273 
17   0.146452 
18   0.119449 
19   0.151285 
20   0.149424 
21   0.145702 
22   0.118911 
23   0.135056 
24   0.13401 
25   0.175314 
26   0.141818 
27   0.160649 
28   0.175505 
29   0.123912 
30   0.157485 
31   0.185608 
 
>  <lowdin_charges> 
31 
1   -0.351913 
2   -0.357934 
3   -0.15857 
4   -0.152005 
5   -0.152336 
6   -0.164876 
7   -0.310491 
8   -0.192244 
9   -0.290364 
10   -0.010839 
11   -0.068521 
12   0.16257 
13   -0.134825 
14   -0.185914 
15   -0.244721 
16   0.313665 
17   0.148698 
18   0.119165 
19   0.149386 
20   0.150809 
21   0.147556 
22   0.119218 
23   0.161639 
24   0.159658 
25   0.183993 
26   0.166486 
27   0.157973 
28   0.16749 
29   0.12395 
30   0.154382 
31   0.188916 
 
$$$$ 
 
