PCCDB-ID:  32997 
public computational chemistry database (PCCDB) project, http://pccdb.org 
 
 33 33  0  0  1  0  0  0  0  0999 V2000 
    2.2459   -1.2297    0.2423 C   0  0  0  0  0  0  0  0  0  0  0  0 
    3.4375    3.4565    2.0572 C   0  0  0  0  0  0  0  0  0  0  0  0 
    2.8905    3.3372   -1.4928 C   0  0  0  0  0  0  0  0  0  0  0  0 
    2.1666    0.2920    0.0886 C   0  0  0  0  0  0  0  0  0  0  0  0 
    1.4027    0.1449    5.1378 C   0  0  0  0  0  0  0  0  0  0  0  0 
    2.7430   -0.0891    4.8304 C   0  0  0  0  0  0  0  0  0  0  0  0 
    0.5597    0.6770    4.1600 C   0  0  0  0  0  0  0  0  0  0  0  0 
    3.2403    0.2081    3.5597 C   0  0  0  0  0  0  0  0  0  0  0  0 
    1.0560    0.9688    2.8895 C   0  0  0  0  0  0  0  0  0  0  0  0 
    2.8775    2.6247    0.8984 C   0  0  2  0  0  0  0  0  0  0  0  0 
    2.4044    0.7420    2.5715 C   0  0  0  0  0  0  0  0  0  0  0  0 
    2.9409    1.0759    1.1826 C   0  0  1  0  0  0  0  0  0  0  0  0 
    3.6623    2.8956   -0.3305 N   0  0  0  0  0  0  0  0  0  0  0  0 
    4.3170    0.7045    1.1264 O   0  0  0  0  0  0  0  0  0  0  0  0 
    1.7606   -1.7295   -0.6038 H   0  0  0  0  0  0  0  0  0  0  0  0 
    1.7543   -1.5670    1.1606 H   0  0  0  0  0  0  0  0  0  0  0  0 
    3.2903   -1.5536    0.2812 H   0  0  0  0  0  0  0  0  0  0  0  0 
    2.8542    3.3214    2.9706 H   0  0  0  0  0  0  0  0  0  0  0  0 
    3.4259    4.5230    1.8006 H   0  0  0  0  0  0  0  0  0  0  0  0 
    4.4695    3.1563    2.2715 H   0  0  0  0  0  0  0  0  0  0  0  0 
    3.5763    3.5617   -2.3166 H   0  0  0  0  0  0  0  0  0  0  0  0 
    2.2736    4.2324   -1.3012 H   0  0  0  0  0  0  0  0  0  0  0  0 
    2.2225    2.5379   -1.8261 H   0  0  0  0  0  0  0  0  0  0  0  0 
    1.1168    0.6148    0.0743 H   0  0  0  0  0  0  0  0  0  0  0  0 
    2.5957    0.5756   -0.8803 H   0  0  0  0  0  0  0  0  0  0  0  0 
    1.0166   -0.0862    6.1271 H   0  0  0  0  0  0  0  0  0  0  0  0 
    3.4089   -0.5061    5.5819 H   0  0  0  0  0  0  0  0  0  0  0  0 
   -0.4878    0.8627    4.3839 H   0  0  0  0  0  0  0  0  0  0  0  0 
    4.2816    0.0275    3.3205 H   0  0  0  0  0  0  0  0  0  0  0  0 
    0.3818    1.3786    2.1413 H   0  0  0  0  0  0  0  0  0  0  0  0 
    1.8279    2.9083    0.7332 H   0  0  0  0  0  0  0  0  0  0  0  0 
    4.3606    3.6041   -0.1211 H   0  0  0  0  0  0  0  0  0  0  0  0 
    4.6303    1.1649    0.3204 H   0  0  0  0  0  0  0  0  0  0  0  0 
  1 17  1  0  0  0  0 
  1 16  1  0  0  0  0 
  2 20  1  0  0  0  0 
  2 18  1  0  0  0  0 
  3 22  1  0  0  0  0 
  3 13  1  0  0  0  0 
  4  1  1  0  0  0  0 
  4 12  1  0  0  0  0 
  5 26  1  0  0  0  0 
  6  5  1  0  0  0  0 
  6 27  1  0  0  0  0 
  7 28  1  0  0  0  0 
  7  5  2  0  0  0  0 
  8  6  2  0  0  0  0 
  9  7  1  0  0  0  0 
 10 31  1  6  0  0  0 
 10 12  1  0  0  0  0 
 10  2  1  0  0  0  0 
 11  9  2  0  0  0  0 
 11  8  1  0  0  0  0 
 12 14  1  6  0  0  0 
 12 11  1  0  0  0  0 
 13 32  1  0  0  0  0 
 13 10  1  0  0  0  0 
 15  1  1  0  0  0  0 
 19  2  1  0  0  0  0 
 21  3  1  0  0  0  0 
 23  3  1  0  0  0  0 
 24  4  1  0  0  0  0 
 25  4  1  0  0  0  0 
 29  8  1  0  0  0  0 
 30  9  1  0  0  0  0 
 33 14  1  0  0  0  0 
M  END 
>  <HBA> 
2 
 
>  <HBD> 
2 
 
>  <TPSA> 
32.26 
 
>  <cid> 
32997 
 
>  <dipole> 
2.69 
 
>  <excitation_energy_1> 
5.25 
 
>  <excitation_energy_2> 
5.56 
 
>  <excitation_energy_3> 
5.618 
 
>  <excitation_energy_4> 
5.856 
 
>  <homo_energy> 
-6.114 
 
>  <homo_lumo_gap> 
6.267 
 
>  <logP> 
2.283 
 
>  <lumo_energy> 
0.152 
 
>  <melting_point> 
56.57 
 
>  <molecular_refractivity> 
59.29 
 
>  <oscillator_strength_1> 
0.0027 
 
>  <oscillator_strength_2> 
0.0285 
 
>  <oscillator_strength_3> 
0.0464 
 
>  <oscillator_strength_4> 
0.0064 
 
>  <open_babel_can_smiles> 
CN[C@@H]([C@@](c1ccccc1)(CC)O)C 
 
>  <mulliken_charges> 
33 
1   -0.448559 
2   -0.482047 
3   -0.30833 
4   -0.270955 
5   -0.128208 
6   -0.13173 
7   -0.137032 
8   -0.170088 
9   -0.185231 
10   0.032302 
11   0.107762 
12   0.284408 
13   -0.585463 
14   -0.676701 
15   0.132872 
16   0.153165 
17   0.160552 
18   0.17222 
19   0.135087 
20   0.160077 
21   0.151908 
22   0.131839 
23   0.161501 
24   0.119905 
25   0.137903 
26   0.124614 
27   0.126183 
28   0.12477 
29   0.156656 
30   0.121164 
31   0.119228 
32   0.309414 
33   0.40081 
 
>  <lowdin_charges> 
33 
1   -0.448752 
2   -0.456044 
3   -0.363443 
4   -0.285832 
5   -0.162603 
6   -0.157663 
7   -0.156899 
8   -0.159744 
9   -0.175322 
10   -0.07437 
11   -0.005872 
12   0.1124 
13   -0.364932 
14   -0.464894 
15   0.146877 
16   0.153333 
17   0.155898 
18   0.167559 
19   0.144059 
20   0.156116 
21   0.153129 
22   0.128464 
23   0.153047 
24   0.13594 
25   0.146015 
26   0.154866 
27   0.157078 
28   0.153692 
29   0.171487 
30   0.153401 
31   0.133485 
32   0.260785 
33   0.338738 
 
$$$$ 
 
