PCCDB-ID:  59083 
public computational chemistry database (PCCDB) project, http://pccdb.org 
 
 39 39  0  0  1  0  0  0  0  0999 V2000 
    5.0797    0.5263   -2.3063 C   0  0  0  0  0  0  0  0  0  0  0  0 
    5.1482   -1.3764   -0.6534 C   0  0  0  0  0  0  0  0  0  0  0  0 
    4.6342    3.2300    2.3532 C   0  0  0  0  0  0  0  0  0  0  0  0 
    9.5442    1.7041    2.9857 C   0  0  0  0  0  0  0  0  0  0  0  0 
    8.8914    2.9184    2.7870 C   0  0  0  0  0  0  0  0  0  0  0  0 
    8.7879    0.5342    3.0761 C   0  0  0  0  0  0  0  0  0  0  0  0 
    7.4986    2.9648    2.6774 C   0  0  0  0  0  0  0  0  0  0  0  0 
    7.3995    0.5867    2.9682 C   0  0  0  0  0  0  0  0  0  0  0  0 
    5.2116    1.0572    0.1595 C   0  0  0  0  0  0  0  0  0  0  0  0 
    4.6865    0.8160    1.5832 C   0  0  0  0  0  0  0  0  0  0  0  0 
    4.6422    1.3850    4.0759 C   0  0  0  0  0  0  0  0  0  0  0  0 
    4.6774    0.0666   -0.8971 C   0  0  0  0  0  0  0  0  0  0  0  0 
    6.7212    1.8013    2.7637 C   0  0  0  0  0  0  0  0  0  0  0  0 
    3.1241    1.4040    4.2138 C   0  0  0  0  0  0  0  0  0  0  0  0 
    5.1815    1.8232    2.6664 C   0  0  2  0  0  0  0  0  0  0  0  0 
    2.4886    2.3583    4.5870 O   0  0  0  0  0  0  0  0  0  0  0  0 
    2.4714    0.2549    3.8678 O   0  0  0  0  0  0  0  0  0  0  0  0 
    4.6818   -0.1487   -3.0732 H   0  0  0  0  0  0  0  0  0  0  0  0 
    6.1721    0.5447   -2.4139 H   0  0  0  0  0  0  0  0  0  0  0  0 
    4.7074    1.5350   -2.5217 H   0  0  0  0  0  0  0  0  0  0  0  0 
    4.7605   -2.0492   -1.4274 H   0  0  0  0  0  0  0  0  0  0  0  0 
    4.8132   -1.7664    0.3140 H   0  0  0  0  0  0  0  0  0  0  0  0 
    6.2442   -1.4384   -0.6782 H   0  0  0  0  0  0  0  0  0  0  0  0 
    3.5468    3.2008    2.2414 H   0  0  0  0  0  0  0  0  0  0  0  0 
    5.0591    3.6287    1.4279 H   0  0  0  0  0  0  0  0  0  0  0  0 
    4.8523    3.9368    3.1603 H   0  0  0  0  0  0  0  0  0  0  0  0 
   10.6269    1.6671    3.0690 H   0  0  0  0  0  0  0  0  0  0  0  0 
    9.4631    3.8401    2.7148 H   0  0  0  0  0  0  0  0  0  0  0  0 
    9.2785   -0.4232    3.2313 H   0  0  0  0  0  0  0  0  0  0  0  0 
    7.0252    3.9277    2.5238 H   0  0  0  0  0  0  0  0  0  0  0  0 
    6.8398   -0.3421    3.0420 H   0  0  0  0  0  0  0  0  0  0  0  0 
    6.3093    1.0222    0.1603 H   0  0  0  0  0  0  0  0  0  0  0  0 
    4.9350    2.0708   -0.1566 H   0  0  0  0  0  0  0  0  0  0  0  0 
    4.9592   -0.2013    1.8953 H   0  0  0  0  0  0  0  0  0  0  0  0 
    3.5888    0.8477    1.5614 H   0  0  0  0  0  0  0  0  0  0  0  0 
    5.0274    0.3869    4.3193 H   0  0  0  0  0  0  0  0  0  0  0  0 
    5.0342    2.0762    4.8266 H   0  0  0  0  0  0  0  0  0  0  0  0 
    3.5777    0.0771   -0.8417 H   0  0  0  0  0  0  0  0  0  0  0  0 
    3.1130   -0.4143    3.5803 H   0  0  0  0  0  0  0  0  0  0  0  0 
  1 12  1  0  0  0  0 
  2 22  1  0  0  0  0 
  3 15  1  0  0  0  0 
  3 26  1  0  0  0  0 
  4 27  1  0  0  0  0 
  4  6  1  0  0  0  0 
  5  4  2  0  0  0  0 
  6 29  1  0  0  0  0 
  7 13  2  0  0  0  0 
  7  5  1  0  0  0  0 
  8 31  1  0  0  0  0 
  8  6  2  0  0  0  0 
  9 32  1  0  0  0  0 
  9 10  1  0  0  0  0 
 10 34  1  0  0  0  0 
 11 14  1  0  0  0  0 
 11 36  1  0  0  0  0 
 11 37  1  0  0  0  0 
 12 38  1  0  0  0  0 
 12  2  1  0  0  0  0 
 12  9  1  0  0  0  0 
 13  8  1  0  0  0  0 
 14 16  2  0  0  0  0 
 15 10  1  6  0  0  0 
 15 13  1  0  0  0  0 
 15 11  1  0  0  0  0 
 17 14  1  0  0  0  0 
 18  1  1  0  0  0  0 
 19  1  1  0  0  0  0 
 20  1  1  0  0  0  0 
 21  2  1  0  0  0  0 
 23  2  1  0  0  0  0 
 24  3  1  0  0  0  0 
 25  3  1  0  0  0  0 
 28  5  1  0  0  0  0 
 30  7  1  0  0  0  0 
 33  9  1  0  0  0  0 
 35 10  1  0  0  0  0 
 39 17  1  0  0  0  0 
M  END 
>  <HBA> 
2 
 
>  <HBD> 
1 
 
>  <TPSA> 
37.3 
 
>  <cid> 
59083 
 
>  <dipole> 
4.27 
 
>  <excitation_energy_1> 
5.284 
 
>  <excitation_energy_2> 
5.396 
 
>  <excitation_energy_3> 
5.762 
 
>  <excitation_energy_4> 
5.892 
 
>  <homo_energy> 
-6.702 
 
>  <homo_lumo_gap> 
6.368 
 
>  <logP> 
3.855 
 
>  <lumo_energy> 
-0.335 
 
>  <melting_point> 
85.94 
 
>  <molecular_refractivity> 
71.52 
 
>  <oscillator_strength_1> 
0.0005 
 
>  <oscillator_strength_2> 
0.0163 
 
>  <oscillator_strength_3> 
0.0162 
 
>  <oscillator_strength_4> 
0.0247 
 
>  <open_babel_can_smiles> 
CC(CC[C@](c1ccccc1)(CC(=O)O)C)C 
 
>  <mulliken_charges> 
39 
1   -0.44345 
2   -0.444685 
3   -0.478573 
4   -0.128126 
5   -0.130395 
6   -0.130794 
7   -0.190539 
8   -0.186227 
9   -0.256458 
10   -0.299837 
11   -0.375773 
12   -0.068108 
13   0.168291 
14   0.593401 
15   0.012338 
16   -0.442294 
17   -0.565921 
18   0.141078 
19   0.140807 
20   0.141439 
21   0.143836 
22   0.134744 
23   0.141916 
24   0.168029 
25   0.153776 
26   0.158485 
27   0.131496 
28   0.132096 
29   0.130569 
30   0.133328 
31   0.120502 
32   0.142915 
33   0.1353 
34   0.118868 
35   0.144949 
36   0.138829 
37   0.182746 
38   0.122613 
39   0.408831 
 
>  <lowdin_charges> 
39 
1   -0.442189 
2   -0.446054 
3   -0.448555 
4   -0.155342 
5   -0.153953 
6   -0.154705 
7   -0.169899 
8   -0.170402 
9   -0.276642 
10   -0.283295 
11   -0.314732 
12   -0.117028 
13   -0.002408 
14   0.194893 
15   0.019857 
16   -0.241028 
17   -0.362562 
18   0.149585 
19   0.144611 
20   0.147372 
21   0.151434 
22   0.142868 
23   0.144932 
24   0.161858 
25   0.15372 
26   0.158549 
27   0.156765 
28   0.15913 
29   0.158002 
30   0.162478 
31   0.151203 
32   0.145186 
33   0.143734 
34   0.131773 
35   0.144278 
36   0.149272 
37   0.178293 
38   0.132726 
39   0.356276 
 
$$$$ 
 
