PCCDB-ID:  30380 
public computational chemistry database (PCCDB) project, http://pccdb.org 
 
 32 33  0  0  0  0  0  0  0  0999 V2000 
    2.7766    3.4815   -1.9363 C   0  0  0  0  0  0  0  0  0  0  0  0 
    2.7495    2.3798   -2.7925 C   0  0  0  0  0  0  0  0  0  0  0  0 
    2.6582    3.2843   -0.5591 C   0  0  0  0  0  0  0  0  0  0  0  0 
    3.3275   -3.4568   -0.8099 C   0  0  0  0  0  0  0  0  0  0  0  0 
    4.1683   -2.6259   -1.8272 C   0  0  0  0  0  0  0  0  0  0  0  0 
    2.6072    1.0926   -2.2718 C   0  0  0  0  0  0  0  0  0  0  0  0 
    2.5197    1.9950   -0.0436 C   0  0  0  0  0  0  0  0  0  0  0  0 
    3.3967   -2.6775    0.5190 C   0  0  0  0  0  0  0  0  0  0  0  0 
    4.6871   -1.3975   -1.0458 C   0  0  0  0  0  0  0  0  0  0  0  0 
    2.3587   -0.5222   -0.3307 C   0  0  0  0  0  0  0  0  0  0  0  0 
    5.1920    0.2526    1.2547 C   0  0  0  0  0  0  0  0  0  0  0  0 
    2.4973    0.8763   -0.8903 C   0  0  0  0  0  0  0  0  0  0  0  0 
    3.6903   -1.2053    0.1273 C   0  0  0  0  0  0  0  0  0  0  0  0 
    4.1692   -0.4890    1.3064 N   0  0  0  0  0  0  0  0  0  0  0  0 
    5.6468    0.9173    2.3418 O   0  0  0  0  0  0  0  0  0  0  0  0 
    2.8810    4.4855   -2.3391 H   0  0  0  0  0  0  0  0  0  0  0  0 
    2.8292    2.5218   -3.8673 H   0  0  0  0  0  0  0  0  0  0  0  0 
    2.6701    4.1363    0.1159 H   0  0  0  0  0  0  0  0  0  0  0  0 
    3.7096   -4.4763   -0.6950 H   0  0  0  0  0  0  0  0  0  0  0  0 
    2.2916   -3.5512   -1.1541 H   0  0  0  0  0  0  0  0  0  0  0  0 
    3.5492   -2.3171   -2.6772 H   0  0  0  0  0  0  0  0  0  0  0  0 
    4.9981   -3.2049   -2.2458 H   0  0  0  0  0  0  0  0  0  0  0  0 
    2.5718    0.2411   -2.9483 H   0  0  0  0  0  0  0  0  0  0  0  0 
    2.4265    1.8483    1.0289 H   0  0  0  0  0  0  0  0  0  0  0  0 
    4.2361   -3.0307    1.1300 H   0  0  0  0  0  0  0  0  0  0  0  0 
    2.4930   -2.7678    1.1319 H   0  0  0  0  0  0  0  0  0  0  0  0 
    4.7943   -0.5079   -1.6744 H   0  0  0  0  0  0  0  0  0  0  0  0 
    5.6750   -1.6229   -0.6239 H   0  0  0  0  0  0  0  0  0  0  0  0 
    1.8794   -1.1650   -1.0783 H   0  0  0  0  0  0  0  0  0  0  0  0 
    1.7008   -0.5074    0.5457 H   0  0  0  0  0  0  0  0  0  0  0  0 
    5.8276    0.4589    0.3915 H   0  0  0  0  0  0  0  0  0  0  0  0 
    5.0374    0.6846    3.0681 H   0  0  0  0  0  0  0  0  0  0  0  0 
  1  3  2  0  0  0  0 
  2  6  2  0  0  0  0 
  2  1  1  0  0  0  0 
  3  7  1  0  0  0  0 
  3 18  1  0  0  0  0 
  4 19  1  0  0  0  0 
  4  8  1  0  0  0  0 
  5  9  1  0  0  0  0 
  5  4  1  0  0  0  0 
  6 12  1  0  0  0  0 
  7 24  1  0  0  0  0 
  8 25  1  0  0  0  0 
  8 26  1  0  0  0  0 
  9 28  1  0  0  0  0 
  9 13  1  0  0  0  0 
 10 13  1  0  0  0  0 
 10 30  1  0  0  0  0 
 11 14  2  0  0  0  0 
 11 15  1  0  0  0  0 
 12 10  1  0  0  0  0 
 12  7  2  0  0  0  0 
 13  8  1  0  0  0  0 
 13 14  1  0  0  0  0 
 15 32  1  0  0  0  0 
 16  1  1  0  0  0  0 
 17  2  1  0  0  0  0 
 20  4  1  0  0  0  0 
 21  5  1  0  0  0  0 
 22  5  1  0  0  0  0 
 23  6  1  0  0  0  0 
 27  9  1  0  0  0  0 
 29 10  1  0  0  0  0 
 31 11  1  0  0  0  0 
M  END 
>  <HBA> 
2 
 
>  <HBD> 
1 
 
>  <TPSA> 
29.1 
 
>  <cid> 
30380 
 
>  <dipole> 
0.73 
 
>  <excitation_energy_1> 
5.28 
 
>  <excitation_energy_2> 
5.8 
 
>  <excitation_energy_3> 
5.869 
 
>  <excitation_energy_4> 
5.965 
 
>  <homo_energy> 
-6.416 
 
>  <homo_lumo_gap> 
6.487 
 
>  <logP> 
3.315 
 
>  <lumo_energy> 
0.071 
 
>  <melting_point> 
85.34 
 
>  <molecular_refractivity> 
61.56 
 
>  <oscillator_strength_1> 
0.0002 
 
>  <oscillator_strength_2> 
0.0607 
 
>  <oscillator_strength_3> 
0.0046 
 
>  <oscillator_strength_4> 
0.0117 
 
>  <open_babel_can_smiles> 
O/C=N/C1(CCCC1)Cc1ccccc1 
 
>  <mulliken_charges> 
32 
1   -0.131453 
2   -0.130148 
3   -0.129538 
4   -0.278113 
5   -0.281292 
6   -0.18877 
7   -0.177784 
8   -0.262746 
9   -0.300006 
10   -0.358186 
11   0.292936 
12   0.170502 
13   0.188445 
14   -0.445922 
15   -0.56628 
16   0.127047 
17   0.12697 
18   0.128176 
19   0.13849 
20   0.138982 
21   0.138457 
22   0.139491 
23   0.123914 
24   0.130762 
25   0.138852 
26   0.136839 
27   0.149165 
28   0.13452 
29   0.143025 
30   0.151744 
31   0.150871 
32   0.401051 
 
>  <lowdin_charges> 
32 
1   -0.160732 
2   -0.156191 
3   -0.157865 
4   -0.286716 
5   -0.286718 
6   -0.172543 
7   -0.161673 
8   -0.281861 
9   -0.300948 
10   -0.279008 
11   0.012318 
12   -0.003097 
13   0.062688 
14   -0.227798 
15   -0.364393 
16   0.155918 
17   0.154379 
18   0.157672 
19   0.146916 
20   0.142172 
21   0.142579 
22   0.148613 
23   0.153728 
24   0.156844 
25   0.147861 
26   0.147784 
27   0.15226 
28   0.143305 
29   0.153759 
30   0.157924 
31   0.148165 
32   0.354659 
 
$$$$ 
 
