PCCDB-ID:  67505 
public computational chemistry database (PCCDB) project, http://pccdb.org 
 
 13 14  0  0  0  0  0  0  0  0999 V2000 
   -2.1131   -0.7478    0.0014 C   0  0  0  0  0  0  0  0  0  0  0  0 
   -2.1676    0.6611    0.0012 C   0  0  0  0  0  0  0  0  0  0  0  0 
   -0.8942   -1.4068    0.0016 C   0  0  0  0  0  0  0  0  0  0  0  0 
   -1.0138    1.4352    0.0011 C   0  0  0  0  0  0  0  0  0  0  0  0 
    0.2782   -0.6361    0.0016 C   0  0  0  0  0  0  0  0  0  0  0  0 
    0.2256    0.7790    0.0014 C   0  0  0  0  0  0  0  0  0  0  0  0 
    1.5679   -1.1456    0.0007 N   0  0  0  0  0  0  0  0  0  0  0  0 
    2.4926   -0.2964   -0.0001 N   0  0  0  0  0  0  0  0  0  0  0  0 
    1.8436    1.3843   -0.0001 S   0  0  0  0  0  0  0  0  0  0  0  0 
   -3.0369   -1.3182    0.0016 H   0  0  0  0  0  0  0  0  0  0  0  0 
   -3.1354    1.1549    0.0012 H   0  0  0  0  0  0  0  0  0  0  0  0 
   -0.8233   -2.4895    0.0012 H   0  0  0  0  0  0  0  0  0  0  0  0 
   -1.0738    2.5187    0.0007 H   0  0  0  0  0  0  0  0  0  0  0  0 
  1  3  2  0  0  0  0 
  1 10  1  0  0  0  0 
  2 11  1  0  0  0  0 
  2  1  1  0  0  0  0 
  3  5  1  0  0  0  0 
  4  2  2  0  0  0  0 
  4  6  1  0  0  0  0 
  6  5  2  0  0  0  0 
  7  5  1  0  0  0  0 
  8  9  1  0  0  0  0 
  8  7  2  0  0  0  0 
  9  6  1  0  0  0  0 
 12  3  1  0  0  0  0 
 13  4  1  0  0  0  0 
M  END 
>  <HBA> 
3 
 
>  <HBD> 
0 
 
>  <TPSA> 
54.02 
 
>  <cid> 
67505 
 
>  <dipole> 
3.82 
 
>  <excitation_energy_1> 
4.003 
 
>  <excitation_energy_2> 
4.177 
 
>  <excitation_energy_3> 
4.901 
 
>  <excitation_energy_4> 
4.959 
 
>  <homo_energy> 
-6.789 
 
>  <homo_lumo_gap> 
4.904 
 
>  <logP> 
1.691 
 
>  <lumo_energy> 
-1.886 
 
>  <melting_point> 
77.89 
 
>  <molecular_refractivity> 
37.41 
 
>  <oscillator_strength_1> 
0.0018 
 
>  <oscillator_strength_2> 
0.0287 
 
>  <oscillator_strength_3> 
0.0004 
 
>  <oscillator_strength_4> 
0.0634 
 
>  <open_babel_can_smiles> 
c1ccc2c(c1)snn2 
 
>  <mulliken_charges> 
13 
1   -0.152203 
2   -0.10688 
3   -0.119056 
4   -0.167609 
5   0.259195 
6   -0.131271 
7   -0.257193 
8   -0.251287 
9   0.318176 
10   0.146076 
11   0.145977 
12   0.161297 
13   0.154776 
 
>  <lowdin_charges> 
13 
1   -0.157809 
2   -0.136994 
3   -0.134042 
4   -0.155543 
5   -0.011791 
6   -0.148215 
7   -0.066356 
8   -0.188453 
9   0.320534 
10   0.16702 
11   0.166611 
12   0.176294 
13   0.168743 
 
$$$$ 
 
