PCCDB-ID:  14033 
public computational chemistry database (PCCDB) project, http://pccdb.org 
 
 30 29  0  0  0  0  0  0  0  0999 V2000 
    2.1389   -0.5741    3.5773 C   0  0  0  0  0  0  0  0  0  0  0  0 
    8.0158    1.4404    0.5073 C   0  0  0  0  0  0  0  0  0  0  0  0 
    3.6533   -1.6057   -3.2400 C   0  0  0  0  0  0  0  0  0  0  0  0 
    3.3693    0.2516    3.2504 C   0  0  0  0  0  0  0  0  0  0  0  0 
    7.1498    1.1804    1.7296 C   0  0  0  0  0  0  0  0  0  0  0  0 
    4.0900   -0.1693   -1.1366 C   0  0  0  0  0  0  0  0  0  0  0  0 
    4.1270    1.2618   -0.5942 C   0  0  0  0  0  0  0  0  0  0  0  0 
    3.8744   -0.2247   -2.6464 C   0  0  0  0  0  0  0  0  0  0  0  0 
    3.8805    0.7771   -3.3357 O   0  0  0  0  0  0  0  0  0  0  0  0 
    4.6126    2.7825    1.7160 O   0  0  0  0  0  0  0  0  0  0  0  0 
    3.4257    0.4202    1.8137 O   0  0  0  0  0  0  0  0  0  0  0  0 
    5.9060    0.5342    1.3619 O   0  0  0  0  0  0  0  0  0  0  0  0 
    4.5403    1.4019    1.1682 P   0  0  0  0  0  0  0  0  0  0  0  0 
    2.0676   -0.7269    4.6600 H   0  0  0  0  0  0  0  0  0  0  0  0 
    2.1893   -1.5541    3.0919 H   0  0  0  0  0  0  0  0  0  0  0  0 
    1.2307   -0.0653    3.2390 H   0  0  0  0  0  0  0  0  0  0  0  0 
    8.9815    1.8573    0.8160 H   0  0  0  0  0  0  0  0  0  0  0  0 
    7.5385    2.1589   -0.1678 H   0  0  0  0  0  0  0  0  0  0  0  0 
    8.2020    0.5133   -0.0451 H   0  0  0  0  0  0  0  0  0  0  0  0 
    2.6871   -2.0043   -2.9045 H   0  0  0  0  0  0  0  0  0  0  0  0 
    4.4234   -2.3087   -2.9010 H   0  0  0  0  0  0  0  0  0  0  0  0 
    3.6568   -1.5461   -4.3302 H   0  0  0  0  0  0  0  0  0  0  0  0 
    4.2857   -0.2529    3.5785 H   0  0  0  0  0  0  0  0  0  0  0  0 
    3.3268    1.2390    3.7221 H   0  0  0  0  0  0  0  0  0  0  0  0 
    6.9249    2.1087    2.2617 H   0  0  0  0  0  0  0  0  0  0  0  0 
    7.6427    0.4881    2.4191 H   0  0  0  0  0  0  0  0  0  0  0  0 
    3.3078   -0.7563   -0.6388 H   0  0  0  0  0  0  0  0  0  0  0  0 
    5.0310   -0.6904   -0.9129 H   0  0  0  0  0  0  0  0  0  0  0  0 
    3.1618    1.7567   -0.7440 H   0  0  0  0  0  0  0  0  0  0  0  0 
    4.8623    1.8588   -1.1439 H   0  0  0  0  0  0  0  0  0  0  0  0 
  1 14  1  0  0  0  0 
  2 17  1  0  0  0  0 
  2  5  1  0  0  0  0 
  3 20  1  0  0  0  0 
  3 21  1  0  0  0  0 
  3  8  1  0  0  0  0 
  4  1  1  0  0  0  0 
  4 23  1  0  0  0  0 
  4 24  1  0  0  0  0 
  5 25  1  0  0  0  0 
  5 26  1  0  0  0  0 
  6 28  1  0  0  0  0 
  6 27  1  0  0  0  0 
  6  7  1  0  0  0  0 
  7 13  1  0  0  0  0 
  8  6  1  0  0  0  0 
  9  8  2  0  0  0  0 
 11  4  1  0  0  0  0 
 12  5  1  0  0  0  0 
 13 12  1  0  0  0  0 
 13 10  2  0  0  0  0 
 13 11  1  0  0  0  0 
 15  1  1  0  0  0  0 
 16  1  1  0  0  0  0 
 18  2  1  0  0  0  0 
 19  2  1  0  0  0  0 
 22  3  1  0  0  0  0 
 29  7  1  0  0  0  0 
 30  7  1  0  0  0  0 
M  END 
>  <HBA> 
4 
 
>  <HBD> 
0 
 
>  <TPSA> 
62.41 
 
>  <cid> 
14033 
 
>  <dipole> 
4.46 
 
>  <excitation_energy_1> 
4.469 
 
>  <excitation_energy_2> 
6.181 
 
>  <excitation_energy_3> 
6.446 
 
>  <excitation_energy_4> 
6.565 
 
>  <homo_energy> 
-6.797 
 
>  <homo_lumo_gap> 
6.365 
 
>  <logP> 
2.232 
 
>  <lumo_energy> 
-0.433 
 
>  <melting_point> 
-8.97 
 
>  <molecular_refractivity> 
51.6 
 
>  <oscillator_strength_1> 
0.0001 
 
>  <oscillator_strength_2> 
0.023 
 
>  <oscillator_strength_3> 
0.0006 
 
>  <oscillator_strength_4> 
0.0011 
 
>  <open_babel_can_smiles> 
CCOP(=O)(CCC(=O)C)OCC 
 
>  <mulliken_charges> 
30 
1   -0.456291 
2   -0.458304 
3   -0.528363 
4   -0.032702 
5   -0.045584 
6   -0.373659 
7   -0.474143 
8   0.449486 
9   -0.432643 
10   -0.568908 
11   -0.542923 
12   -0.56469 
13   1.145155 
14   0.150646 
15   0.158821 
16   0.165422 
17   0.152305 
18   0.165945 
19   0.156027 
20   0.173945 
21   0.166079 
22   0.182127 
23   0.152391 
24   0.171333 
25   0.182122 
26   0.14926 
27   0.180006 
28   0.182204 
29   0.196614 
30   0.198324 
 
>  <lowdin_charges> 
30 
1   -0.445161 
2   -0.455757 
3   -0.474048 
4   -0.116255 
5   -0.122632 
6   -0.312827 
7   -0.44567 
8   0.167852 
9   -0.235325 
10   -0.601089 
11   -0.406214 
12   -0.420182 
13   1.05625 
14   0.156842 
15   0.15684 
16   0.160986 
17   0.159559 
18   0.160204 
19   0.155521 
20   0.173128 
21   0.168689 
22   0.172356 
23   0.147497 
24   0.157785 
25   0.165776 
26   0.149843 
27   0.173131 
28   0.174369 
29   0.188861 
30   0.189669 
 
$$$$ 
 
