PCCDB-ID:  68484 
public computational chemistry database (PCCDB) project, http://pccdb.org 
 
 24 24  0  0  0  0  0  0  0  0999 V2000 
    1.4031    0.4506   -1.5085 C   0  0  0  0  0  0  0  0  0  0  0  0 
    5.5849   -3.6437   -2.3222 C   0  0  0  0  0  0  0  0  0  0  0  0 
    7.7320    1.2405   -0.8669 C   0  0  0  0  0  0  0  0  0  0  0  0 
    6.9264    2.3084   -0.4676 C   0  0  0  0  0  0  0  0  0  0  0  0 
    7.1464    0.0330   -1.2336 C   0  0  0  0  0  0  0  0  0  0  0  0 
    5.5410    2.1639   -0.4462 C   0  0  0  0  0  0  0  0  0  0  0  0 
    2.8272    0.7877   -1.8547 C   0  0  0  0  0  0  0  0  0  0  0  0 
    5.7518   -0.1387   -1.2134 C   0  0  0  0  0  0  0  0  0  0  0  0 
    4.9574    0.9552   -0.8173 C   0  0  0  0  0  0  0  0  0  0  0  0 
    5.1466   -1.4534   -1.5741 C   0  0  0  0  0  0  0  0  0  0  0  0 
    3.2815    0.9785   -2.9521 O   0  0  0  0  0  0  0  0  0  0  0  0 
    3.9634   -1.7323   -1.5350 O   0  0  0  0  0  0  0  0  0  0  0  0 
    6.0872   -2.3503   -1.9547 O   0  0  0  0  0  0  0  0  0  0  0  0 
    3.5807    0.8625   -0.6995 O   0  0  0  0  0  0  0  0  0  0  0  0 
    1.0427    1.0759   -0.6865 H   0  0  0  0  0  0  0  0  0  0  0  0 
    1.3718   -0.5929   -1.1787 H   0  0  0  0  0  0  0  0  0  0  0  0 
    0.7732    0.5785   -2.3895 H   0  0  0  0  0  0  0  0  0  0  0  0 
    4.8779   -3.5590   -3.1515 H   0  0  0  0  0  0  0  0  0  0  0  0 
    5.0822   -4.1164   -1.4741 H   0  0  0  0  0  0  0  0  0  0  0  0 
    6.4605   -4.2213   -2.6199 H   0  0  0  0  0  0  0  0  0  0  0  0 
    8.8125    1.3465   -0.8899 H   0  0  0  0  0  0  0  0  0  0  0  0 
    7.3733    3.2550   -0.1769 H   0  0  0  0  0  0  0  0  0  0  0  0 
    7.7654   -0.8018   -1.5388 H   0  0  0  0  0  0  0  0  0  0  0  0 
    4.8914    2.9782   -0.1427 H   0  0  0  0  0  0  0  0  0  0  0  0 
  1 16  1  0  0  0  0 
  1 15  1  0  0  0  0 
  2 13  1  0  0  0  0 
  2 19  1  0  0  0  0 
  3  4  2  0  0  0  0 
  4  6  1  0  0  0  0 
  4 22  1  0  0  0  0 
  5  8  2  0  0  0  0 
  5  3  1  0  0  0  0 
  6 24  1  0  0  0  0 
  7  1  1  0  0  0  0 
  7 14  1  0  0  0  0 
  8  9  1  0  0  0  0 
  9 14  1  0  0  0  0 
  9  6  2  0  0  0  0 
 10 12  2  0  0  0  0 
 10  8  1  0  0  0  0 
 11  7  2  0  0  0  0 
 13 10  1  0  0  0  0 
 17  1  1  0  0  0  0 
 18  2  1  0  0  0  0 
 20  2  1  0  0  0  0 
 21  3  1  0  0  0  0 
 23  5  1  0  0  0  0 
M  END 
>  <HBA> 
4 
 
>  <HBD> 
0 
 
>  <TPSA> 
52.6 
 
>  <cid> 
68484 
 
>  <dipole> 
2.02 
 
>  <excitation_energy_1> 
4.658 
 
>  <excitation_energy_2> 
4.809 
 
>  <excitation_energy_3> 
5.242 
 
>  <excitation_energy_4> 
5.336 
 
>  <homo_energy> 
-6.836 
 
>  <homo_lumo_gap> 
5.483 
 
>  <logP> 
1.399 
 
>  <lumo_energy> 
-1.352 
 
>  <melting_point> 
56.1 
 
>  <molecular_refractivity> 
49.22 
 
>  <oscillator_strength_1> 
0.0308 
 
>  <oscillator_strength_2> 
0.0125 
 
>  <oscillator_strength_3> 
0.0059 
 
>  <oscillator_strength_4> 
0.1668 
 
>  <open_babel_can_smiles> 
COC(=O)c1ccccc1OC(=O)C 
 
>  <mulliken_charges> 
24 
1   -0.531407 
2   -0.215113 
3   -0.125654 
4   -0.129078 
5   -0.181701 
6   -0.160168 
7   0.619275 
8   0.054036 
9   0.328163 
10   0.619297 
11   -0.448373 
12   -0.50166 
13   -0.468472 
14   -0.525067 
15   0.175215 
16   0.20693 
17   0.178924 
18   0.175514 
19   0.170358 
20   0.164755 
21   0.138805 
22   0.143355 
23   0.1652 
24   0.146866 
 
>  <lowdin_charges> 
24 
1   -0.463549 
2   -0.278243 
3   -0.15989 
4   -0.131557 
5   -0.131842 
6   -0.168433 
7   0.221385 
8   -0.056969 
9   0.12773 
10   0.202497 
11   -0.240737 
12   -0.265686 
13   -0.188956 
14   -0.167732 
15   0.175283 
16   0.19057 
17   0.175003 
18   0.162751 
19   0.160594 
20   0.161481 
21   0.161359 
22   0.164924 
23   0.177549 
24   0.172467 
 
$$$$ 
 
