PCCDB-ID:  70217 
public computational chemistry database (PCCDB) project, http://pccdb.org 
 
 18 17  0  0  0  0  0  0  0  0999 V2000 
    5.1821   -0.2474   -0.2016 C   0  0  0  0  0  0  0  0  0  0  0  0 
    0.7351   -1.8754   -1.4606 C   0  0  0  0  0  0  0  0  0  0  0  0 
    2.2297   -2.1732   -1.3149 C   0  0  0  0  0  0  0  0  0  0  0  0 
    0.0188   -1.7173   -0.1162 C   0  0  0  0  0  0  0  0  0  0  0  0 
    3.0370   -0.9710   -0.8621 C   0  0  0  0  0  0  0  0  0  0  0  0 
    0.1360   -2.8709    0.7164 O   0  0  0  0  0  0  0  0  0  0  0  0 
    2.6174    0.1597   -0.7296 O   0  0  0  0  0  0  0  0  0  0  0  0 
    4.3229   -1.3167   -0.6290 O   0  0  0  0  0  0  0  0  0  0  0  0 
    6.1645   -0.6996   -0.0614 H   0  0  0  0  0  0  0  0  0  0  0  0 
    4.8207    0.1842    0.7357 H   0  0  0  0  0  0  0  0  0  0  0  0 
    5.2263    0.5397   -0.9594 H   0  0  0  0  0  0  0  0  0  0  0  0 
    0.2646   -2.6938   -2.0246 H   0  0  0  0  0  0  0  0  0  0  0  0 
    0.5920   -0.9603   -2.0471 H   0  0  0  0  0  0  0  0  0  0  0  0 
    2.6599   -2.5171   -2.2643 H   0  0  0  0  0  0  0  0  0  0  0  0 
    2.3877   -2.9844   -0.5954 H   0  0  0  0  0  0  0  0  0  0  0  0 
   -1.0384   -1.4606   -0.2869 H   0  0  0  0  0  0  0  0  0  0  0  0 
    0.4690   -0.8981    0.4505 H   0  0  0  0  0  0  0  0  0  0  0  0 
   -0.3387   -3.5954    0.2793 H   0  0  0  0  0  0  0  0  0  0  0  0 
  1  9  1  0  0  0  0 
  1 10  1  0  0  0  0 
  2  3  1  0  0  0  0 
  2  4  1  0  0  0  0 
  3  5  1  0  0  0  0 
  3 15  1  0  0  0  0 
  4 17  1  0  0  0  0 
  4  6  1  0  0  0  0 
  5  7  2  0  0  0  0 
  5  8  1  0  0  0  0 
  8  1  1  0  0  0  0 
 11  1  1  0  0  0  0 
 12  2  1  0  0  0  0 
 13  2  1  0  0  0  0 
 14  3  1  0  0  0  0 
 16  4  1  0  0  0  0 
 18  6  1  0  0  0  0 
M  END 
>  <HBA> 
3 
 
>  <HBD> 
1 
 
>  <TPSA> 
46.53 
 
>  <cid> 
70217 
 
>  <dipole> 
1.92 
 
>  <excitation_energy_1> 
5.85 
 
>  <excitation_energy_2> 
6.439 
 
>  <excitation_energy_3> 
6.844 
 
>  <excitation_energy_4> 
6.875 
 
>  <homo_energy> 
-7.203 
 
>  <homo_lumo_gap> 
7.617 
 
>  <logP> 
-0.068 
 
>  <lumo_energy> 
0.414 
 
>  <melting_point> 
5.16 
 
>  <molecular_refractivity> 
28.6 
 
>  <oscillator_strength_1> 
0.0009 
 
>  <oscillator_strength_2> 
0.0056 
 
>  <oscillator_strength_3> 
0.0013 
 
>  <oscillator_strength_4> 
0.008 
 
>  <open_babel_can_smiles> 
COC(=O)CCCO 
 
>  <mulliken_charges> 
18 
1   -0.217411 
2   -0.276279 
3   -0.355702 
4   -0.047471 
5   0.621885 
6   -0.61282 
7   -0.482688 
8   -0.450605 
9   0.163836 
10   0.171009 
11   0.168418 
12   0.122655 
13   0.156298 
14   0.17031 
15   0.18784 
16   0.123128 
17   0.172651 
18   0.384945 
 
>  <lowdin_charges> 
18 
1   -0.279297 
2   -0.293213 
3   -0.306634 
4   -0.138358 
5   0.19936 
6   -0.472522 
7   -0.269971 
8   -0.194064 
9   0.159714 
10   0.159709 
11   0.158865 
12   0.140522 
13   0.160238 
14   0.170473 
15   0.177156 
16   0.12839 
17   0.159067 
18   0.340567 
 
$$$$ 
 
