PCCDB-ID:  28606 
public computational chemistry database (PCCDB) project, http://pccdb.org 
 
 36 37  0  0  1  0  0  0  0  0999 V2000 
    1.4421    1.2557    0.0905 C   0  0  0  0  0  0  0  0  0  0  0  0 
    3.1408    0.3179   -1.4708 C   0  0  0  0  0  0  0  0  0  0  0  0 
    3.8634   -1.5923    3.0709 C   0  0  0  0  0  0  0  0  0  0  0  0 
   -0.7735   -1.7559    2.7387 C   0  0  0  0  0  0  0  0  0  0  0  0 
    5.3031    0.8636    0.5155 C   0  0  0  0  0  0  0  0  0  0  0  0 
    5.2813   -0.5421    1.1859 C   0  0  0  0  0  0  0  0  0  0  0  0 
    3.6808    0.9006    2.2467 C   0  0  0  0  0  0  0  0  0  0  0  0 
    3.8785    1.3856    0.7949 C   0  0  2  0  0  0  0  0  0  0  0  0 
    2.8388   -0.8166    0.8167 C   0  0  1  0  0  0  0  0  0  0  0  0 
    0.6098   -1.8064    0.8503 C   0  0  0  0  0  0  0  0  0  0  0  0 
    2.8074    0.5460    0.0141 C   0  0  0  0  0  0  0  0  0  0  0  0 
    3.9066   -0.5960    1.9190 C   0  0  2  0  0  0  0  0  0  0  0  0 
   -0.5025   -2.1349    1.3602 N   0  0  0  0  0  0  0  0  0  0  0  0 
    0.9102   -2.1433   -0.4329 O   0  0  0  0  0  0  0  0  0  0  0  0 
    1.5803   -1.1203    1.4766 O   0  0  0  0  0  0  0  0  0  0  0  0 
    1.4999    2.2087   -0.4491 H   0  0  0  0  0  0  0  0  0  0  0  0 
    1.1318    1.4689    1.1167 H   0  0  0  0  0  0  0  0  0  0  0  0 
    0.6547    0.6591   -0.3807 H   0  0  0  0  0  0  0  0  0  0  0  0 
    3.2825    1.2723   -1.9931 H   0  0  0  0  0  0  0  0  0  0  0  0 
    2.3209   -0.2183   -1.9601 H   0  0  0  0  0  0  0  0  0  0  0  0 
    4.0483   -0.2780   -1.6125 H   0  0  0  0  0  0  0  0  0  0  0  0 
    4.6396   -1.3550    3.8083 H   0  0  0  0  0  0  0  0  0  0  0  0 
    4.0441   -2.6160    2.7183 H   0  0  0  0  0  0  0  0  0  0  0  0 
    2.8940   -1.5802    3.5763 H   0  0  0  0  0  0  0  0  0  0  0  0 
   -1.8316   -1.9349    2.9515 H   0  0  0  0  0  0  0  0  0  0  0  0 
   -0.5543   -0.6983    2.9413 H   0  0  0  0  0  0  0  0  0  0  0  0 
   -0.1829   -2.3539    3.4476 H   0  0  0  0  0  0  0  0  0  0  0  0 
    5.5614    0.8365   -0.5461 H   0  0  0  0  0  0  0  0  0  0  0  0 
    6.0362    1.5156    1.0042 H   0  0  0  0  0  0  0  0  0  0  0  0 
    6.0928   -0.6520    1.9141 H   0  0  0  0  0  0  0  0  0  0  0  0 
    5.3892   -1.3612    0.4645 H   0  0  0  0  0  0  0  0  0  0  0  0 
    2.6867    1.0976    2.6590 H   0  0  0  0  0  0  0  0  0  0  0  0 
    4.4300    1.3026    2.9393 H   0  0  0  0  0  0  0  0  0  0  0  0 
    3.7647    2.4612    0.6234 H   0  0  0  0  0  0  0  0  0  0  0  0 
    3.0881   -1.6638    0.1743 H   0  0  0  0  0  0  0  0  0  0  0  0 
    0.1294   -2.6376   -0.7396 H   0  0  0  0  0  0  0  0  0  0  0  0 
  1 17  1  0  0  0  0 
  2 11  1  0  0  0  0 
  3 24  1  0  0  0  0 
  3 22  1  0  0  0  0 
  4 26  1  0  0  0  0 
  4 25  1  0  0  0  0 
  4 27  1  0  0  0  0 
  5  8  1  0  0  0  0 
  5 29  1  0  0  0  0 
  5  6  1  0  0  0  0 
  6 30  1  0  0  0  0 
  6 12  1  0  0  0  0 
  7 32  1  0  0  0  0 
  7 33  1  0  0  0  0 
  8 34  1  6  0  0  0 
  8  7  1  0  0  0  0 
  9 35  1  6  0  0  0 
  9 15  1  0  0  0  0 
  9 12  1  0  0  0  0 
 10 13  2  0  0  0  0 
 10 15  1  0  0  0  0 
 11  1  1  0  0  0  0 
 11  8  1  0  0  0  0 
 11  9  1  0  0  0  0 
 12  7  1  0  0  0  0 
 12  3  1  1  0  0  0 
 13  4  1  0  0  0  0 
 14 10  1  0  0  0  0 
 16  1  1  0  0  0  0 
 18  1  1  0  0  0  0 
 19  2  1  0  0  0  0 
 20  2  1  0  0  0  0 
 21  2  1  0  0  0  0 
 23  3  1  0  0  0  0 
 28  5  1  0  0  0  0 
 31  6  1  0  0  0  0 
 36 14  1  0  0  0  0 
M  END 
>  <HBA> 
3 
 
>  <HBD> 
1 
 
>  <TPSA> 
38.33 
 
>  <cid> 
28606 
 
>  <dipole> 
1.72 
 
>  <excitation_energy_1> 
5.767 
 
>  <excitation_energy_2> 
6.204 
 
>  <excitation_energy_3> 
6.296 
 
>  <excitation_energy_4> 
6.364 
 
>  <homo_energy> 
-6.316 
 
>  <homo_lumo_gap> 
7.818 
 
>  <logP> 
2.948 
 
>  <lumo_energy> 
1.502 
 
>  <melting_point> 
101.94 
 
>  <molecular_refractivity> 
59.53 
 
>  <oscillator_strength_1> 
0.001 
 
>  <oscillator_strength_2> 
0.0012 
 
>  <oscillator_strength_3> 
0.005 
 
>  <oscillator_strength_4> 
0.0257 
 
>  <open_babel_can_smiles> 
C/N=C(\O[C@@H]1[C@@]2(C)CC[C@@H](C1(C)C)C2)/O 
 
>  <mulliken_charges> 
36 
1   -0.463778 
2   -0.470745 
3   -0.471081 
4   -0.315497 
5   -0.279459 
6   -0.289057 
7   -0.292578 
8   -0.102897 
9   0.125723 
10   0.732779 
11   0.090708 
12   0.073172 
13   -0.500399 
14   -0.610645 
15   -0.505316 
16   0.139414 
17   0.153198 
18   0.1538 
19   0.139332 
20   0.158106 
21   0.141974 
22   0.138244 
23   0.140152 
24   0.1618 
25   0.149661 
26   0.143582 
27   0.145971 
28   0.139239 
29   0.135425 
30   0.139565 
31   0.133604 
32   0.147568 
33   0.130777 
34   0.112283 
35   0.153647 
36   0.421731 
 
>  <lowdin_charges> 
36 
1   -0.444174 
2   -0.447912 
3   -0.443914 
4   -0.351277 
5   -0.287053 
6   -0.286926 
7   -0.288415 
8   -0.131397 
9   -0.000324 
10   0.186076 
11   -0.001067 
12   -0.000703 
13   -0.279166 
14   -0.376619 
15   -0.186448 
16   0.149011 
17   0.151845 
18   0.155861 
19   0.147751 
20   0.158199 
21   0.147426 
22   0.149785 
23   0.148621 
24   0.158277 
25   0.14832 
26   0.139623 
27   0.145247 
28   0.14493 
29   0.146593 
30   0.148859 
31   0.143088 
32   0.149086 
33   0.144974 
34   0.138608 
35   0.152045 
36   0.371171 
 
$$$$ 
 
