PCCDB-ID:  37870 
public computational chemistry database (PCCDB) project, http://pccdb.org 
 
 28 29  0  0  1  0  0  0  0  0999 V2000 
    2.1431    2.9176   -1.3934 C   0  0  0  0  0  0  0  0  0  0  0  0 
    2.7778    1.7736   -1.6513 C   0  0  0  0  0  0  0  0  0  0  0  0 
    6.2208    3.0561    3.7042 C   0  0  0  0  0  0  0  0  0  0  0  0 
    6.2696    3.9776    2.6587 C   0  0  0  0  0  0  0  0  0  0  0  0 
    5.9622    1.7092    3.4321 C   0  0  0  0  0  0  0  0  0  0  0  0 
    6.0597    3.5520    1.3441 C   0  0  0  0  0  0  0  0  0  0  0  0 
    5.7623    1.2823    2.1207 C   0  0  0  0  0  0  0  0  0  0  0  0 
    3.2871    0.8255   -0.5936 C   0  0  0  0  0  0  0  0  0  0  0  0 
    5.8094    2.2025    1.0649 C   0  0  0  0  0  0  0  0  0  0  0  0 
    5.6624    1.7469   -0.3777 C   0  0  1  0  0  0  0  0  0  0  0  0 
    6.9286    1.0833   -0.9229 C   0  0  0  0  0  0  0  0  0  0  0  0 
    5.3593   -0.3374   -1.3817 C   0  0  0  0  0  0  0  0  0  0  0  0 
    6.7591   -0.0548   -1.4801 N   0  0  0  0  0  0  0  0  0  0  0  0 
    4.7370    0.6647   -0.6247 N   0  0  0  0  0  0  0  0  0  0  0  0 
    8.1216    1.6710   -0.8139 O   0  0  0  0  0  0  0  0  0  0  0  0 
    4.7940   -1.2954   -1.8616 O   0  0  0  0  0  0  0  0  0  0  0  0 
    1.7877    3.5688   -2.1874 H   0  0  0  0  0  0  0  0  0  0  0  0 
    1.9391    3.2392   -0.3735 H   0  0  0  0  0  0  0  0  0  0  0  0 
    2.9673    1.4720   -2.6817 H   0  0  0  0  0  0  0  0  0  0  0  0 
    6.3777    3.3846    4.7278 H   0  0  0  0  0  0  0  0  0  0  0  0 
    6.4577    5.0279    2.8630 H   0  0  0  0  0  0  0  0  0  0  0  0 
    5.9198    0.9892    4.2447 H   0  0  0  0  0  0  0  0  0  0  0  0 
    6.0664    4.2787    0.5334 H   0  0  0  0  0  0  0  0  0  0  0  0 
    5.5618    0.2366    1.9054 H   0  0  0  0  0  0  0  0  0  0  0  0 
    2.8802   -0.1786   -0.7502 H   0  0  0  0  0  0  0  0  0  0  0  0 
    2.9855    1.1669    0.4036 H   0  0  0  0  0  0  0  0  0  0  0  0 
    5.4265    2.6256   -1.0013 H   0  0  0  0  0  0  0  0  0  0  0  0 
    8.0376    2.4514   -0.2373 H   0  0  0  0  0  0  0  0  0  0  0  0 
  1 18  1  0  0  0  0 
  2  1  2  0  0  0  0 
  2  8  1  0  0  0  0 
  3 20  1  0  0  0  0 
  4 21  1  0  0  0  0 
  4  3  2  0  0  0  0 
  5  3  1  0  0  0  0 
  5 22  1  0  0  0  0 
  6  4  1  0  0  0  0 
  7  5  2  0  0  0  0 
  8 26  1  0  0  0  0 
  9  6  2  0  0  0  0 
  9  7  1  0  0  0  0 
 10 27  1  6  0  0  0 
 10  9  1  0  0  0  0 
 11 15  1  0  0  0  0 
 11 10  1  0  0  0  0 
 12 14  1  0  0  0  0 
 13 12  1  0  0  0  0 
 13 11  2  0  0  0  0 
 14  8  1  0  0  0  0 
 14 10  1  0  0  0  0 
 15 28  1  0  0  0  0 
 16 12  2  0  0  0  0 
 17  1  1  0  0  0  0 
 19  2  1  0  0  0  0 
 23  6  1  0  0  0  0 
 24  7  1  0  0  0  0 
 25  8  1  0  0  0  0 
M  END 
>  <HBA> 
4 
 
>  <HBD> 
1 
 
>  <TPSA> 
49.41 
 
>  <cid> 
37870 
 
>  <dipole> 
7.5 
 
>  <excitation_energy_1> 
4.807 
 
>  <excitation_energy_2> 
5.058 
 
>  <excitation_energy_3> 
5.081 
 
>  <excitation_energy_4> 
5.261 
 
>  <homo_energy> 
-6.702 
 
>  <homo_lumo_gap> 
5.75 
 
>  <logP> 
1.732 
 
>  <lumo_energy> 
-0.952 
 
>  <melting_point> 
88.74 
 
>  <molecular_refractivity> 
67.17 
 
>  <oscillator_strength_1> 
0.0036 
 
>  <oscillator_strength_2> 
0.0046 
 
>  <oscillator_strength_3> 
0.0026 
 
>  <oscillator_strength_4> 
0.0161 
 
>  <open_babel_can_smiles> 
C=CCN1C(=O)N=C([C@@H]1c1ccccc1)O 
 
>  <mulliken_charges> 
28 
1   -0.340956 
2   -0.055089 
3   -0.12475 
4   -0.127698 
5   -0.127879 
6   -0.213209 
7   -0.171996 
8   -0.195604 
9   0.149593 
10   -0.123425 
11   0.539776 
12   0.702426 
13   -0.484178 
14   -0.467238 
15   -0.573817 
16   -0.502517 
17   0.149354 
18   0.142749 
19   0.150407 
20   0.142432 
21   0.142402 
22   0.145837 
23   0.136523 
24   0.159583 
25   0.195118 
26   0.1529 
27   0.17874 
28   0.420517 
 
>  <lowdin_charges> 
28 
1   -0.333687 
2   -0.157686 
3   -0.148156 
4   -0.148047 
5   -0.145133 
6   -0.184652 
7   -0.151639 
8   -0.192361 
9   -0.027849 
10   -0.090372 
11   0.140211 
12   0.17504 
13   -0.1894 
14   -0.13167 
15   -0.31395 
16   -0.271037 
17   0.164389 
18   0.156086 
19   0.160916 
20   0.16321 
21   0.16239 
22   0.166361 
23   0.159025 
24   0.170917 
25   0.180676 
26   0.152212 
27   0.165445 
28   0.368761 
 
$$$$ 
 
