PCCDB-ID:  60017 
public computational chemistry database (PCCDB) project, http://pccdb.org 
 
 38 39  0  0  1  0  0  0  0  0999 V2000 
    2.6339    0.8060    1.5963 C   0  0  0  0  0  0  0  0  0  0  0  0 
    1.3705    0.6580   -0.5850 C   0  0  0  0  0  0  0  0  0  0  0  0 
    3.8553    1.0549   -0.5836 C   0  0  0  0  0  0  0  0  0  0  0  0 
    5.1631   -2.2453   -0.1241 C   0  0  0  0  0  0  0  0  0  0  0  0 
   -0.3436   -3.2636    3.9553 C   0  0  0  0  0  0  0  0  0  0  0  0 
    0.4955   -2.7447    2.9710 C   0  0  0  0  0  0  0  0  0  0  0  0 
   -0.3212   -4.6225    4.2720 C   0  0  0  0  0  0  0  0  0  0  0  0 
    1.3886   -4.9596    2.5892 C   0  0  0  0  0  0  0  0  0  0  0  0 
    3.6857   -2.5657    1.8046 C   0  0  0  0  0  0  0  0  0  0  0  0 
    1.3685   -3.5970    2.2821 C   0  0  0  0  0  0  0  0  0  0  0  0 
    0.5509   -5.4716    3.5841 C   0  0  0  0  0  0  0  0  0  0  0  0 
    2.3367   -3.0668    1.2533 C   0  0  1  0  0  0  0  0  0  0  0  0 
    2.9468   -1.1880    0.0505 C   0  0  1  0  0  0  0  0  0  0  0  0 
    2.6956    0.3377    0.1322 C   0  0  0  0  0  0  0  0  0  0  0  0 
    4.1618   -1.6491    0.7592 N   0  0  0  0  0  0  0  0  0  0  0  0 
    0.6260   -6.8158    3.8340 O   0  0  0  0  0  0  0  0  0  0  0  0 
    1.8378   -1.8875    0.6235 O   0  0  0  0  0  0  0  0  0  0  0  0 
    2.4929    1.8924    1.6419 H   0  0  0  0  0  0  0  0  0  0  0  0 
    3.5638    0.5604    2.1197 H   0  0  0  0  0  0  0  0  0  0  0  0 
    1.8018    0.3365    2.1300 H   0  0  0  0  0  0  0  0  0  0  0  0 
    1.1828    1.7385   -0.5795 H   0  0  0  0  0  0  0  0  0  0  0  0 
    0.5274    0.1594   -0.0981 H   0  0  0  0  0  0  0  0  0  0  0  0 
    1.3954    0.3304   -1.6324 H   0  0  0  0  0  0  0  0  0  0  0  0 
    3.6946    2.1394   -0.5764 H   0  0  0  0  0  0  0  0  0  0  0  0 
    3.9372    0.7413   -1.6327 H   0  0  0  0  0  0  0  0  0  0  0  0 
    4.8094    0.8505   -0.0866 H   0  0  0  0  0  0  0  0  0  0  0  0 
    6.0571   -2.4909    0.4580 H   0  0  0  0  0  0  0  0  0  0  0  0 
    5.4573   -1.5197   -0.8884 H   0  0  0  0  0  0  0  0  0  0  0  0 
    4.8243   -3.1625   -0.6416 H   0  0  0  0  0  0  0  0  0  0  0  0 
   -1.0292   -2.6059    4.4833 H   0  0  0  0  0  0  0  0  0  0  0  0 
    0.4633   -1.6922    2.7144 H   0  0  0  0  0  0  0  0  0  0  0  0 
   -0.9799   -5.0216    5.0415 H   0  0  0  0  0  0  0  0  0  0  0  0 
    2.0454   -5.6449    2.0603 H   0  0  0  0  0  0  0  0  0  0  0  0 
    4.4072   -3.3674    1.9857 H   0  0  0  0  0  0  0  0  0  0  0  0 
    3.5167   -2.0302    2.7467 H   0  0  0  0  0  0  0  0  0  0  0  0 
    2.5194   -3.8448    0.4930 H   0  0  0  0  0  0  0  0  0  0  0  0 
    3.0298   -1.4669   -1.0155 H   0  0  0  0  0  0  0  0  0  0  0  0 
   -0.0118   -7.0409    4.5290 H   0  0  0  0  0  0  0  0  0  0  0  0 
  1 18  1  0  0  0  0 
  1 19  1  0  0  0  0 
  1 20  1  0  0  0  0 
  2 21  1  0  0  0  0 
  2 22  1  0  0  0  0 
  2 14  1  0  0  0  0 
  3 24  1  0  0  0  0 
  3 26  1  0  0  0  0 
  3 14  1  0  0  0  0 
  4 27  1  0  0  0  0 
  4 15  1  0  0  0  0 
  5  7  1  0  0  0  0 
  5 30  1  0  0  0  0 
  6  5  2  0  0  0  0 
  7 32  1  0  0  0  0 
  8 11  1  0  0  0  0 
  9 34  1  0  0  0  0 
  9 35  1  0  0  0  0 
 10  8  2  0  0  0  0 
 10  6  1  0  0  0  0 
 11 16  1  0  0  0  0 
 11  7  2  0  0  0  0 
 12 36  1  6  0  0  0 
 12  9  1  0  0  0  0 
 12 10  1  0  0  0  0 
 13 37  1  6  0  0  0 
 13 14  1  0  0  0  0 
 13 17  1  0  0  0  0 
 13 15  1  0  0  0  0 
 14  1  1  0  0  0  0 
 15  9  1  0  0  0  0 
 16 38  1  0  0  0  0 
 17 12  1  0  0  0  0 
 23  2  1  0  0  0  0 
 25  3  1  0  0  0  0 
 28  4  1  0  0  0  0 
 29  4  1  0  0  0  0 
 31  6  1  0  0  0  0 
 33  8  1  0  0  0  0 
M  END 
>  <HBA> 
3 
 
>  <HBD> 
1 
 
>  <TPSA> 
32.7 
 
>  <cid> 
60017 
 
>  <dipole> 
1.21 
 
>  <excitation_energy_1> 
4.929 
 
>  <excitation_energy_2> 
5.045 
 
>  <excitation_energy_3> 
5.194 
 
>  <excitation_energy_4> 
5.326 
 
>  <homo_energy> 
-5.793 
 
>  <homo_lumo_gap> 
5.742 
 
>  <logP> 
2.705 
 
>  <lumo_energy> 
-0.052 
 
>  <melting_point> 
78.43 
 
>  <molecular_refractivity> 
72.6 
 
>  <oscillator_strength_1> 
0.062 
 
>  <oscillator_strength_2> 
0.0214 
 
>  <oscillator_strength_3> 
0.0002 
 
>  <oscillator_strength_4> 
0.021 
 
>  <open_babel_can_smiles> 
CN1C[C@H](O[C@H]1C(C)(C)C)c1cccc(c1)O 
 
>  <mulliken_charges> 
38 
1   -0.466718 
2   -0.450322 
3   -0.459243 
4   -0.315335 
5   -0.137269 
6   -0.182733 
7   -0.193716 
8   -0.218914 
9   -0.145358 
10   0.131289 
11   0.352372 
12   0.076413 
13   0.299945 
14   0.09382 
15   -0.417331 
16   -0.645109 
17   -0.530987 
18   0.134186 
19   0.156667 
20   0.152377 
21   0.135178 
22   0.162434 
23   0.132841 
24   0.140473 
25   0.131133 
26   0.15717 
27   0.155004 
28   0.159116 
29   0.125823 
30   0.131291 
31   0.150875 
32   0.116567 
33   0.131431 
34   0.143316 
35   0.153456 
36   0.125162 
37   0.107823 
38   0.406873 
 
>  <lowdin_charges> 
38 
1   -0.447396 
2   -0.442465 
3   -0.442861 
4   -0.36177 
5   -0.143375 
6   -0.181987 
7   -0.218467 
8   -0.199226 
9   -0.214208 
10   0.001268 
11   0.105512 
12   -0.005681 
13   0.056206 
14   0.004375 
15   -0.195393 
16   -0.382622 
17   -0.265396 
18   0.144713 
19   0.155741 
20   0.15059 
21   0.144703 
22   0.159093 
23   0.143235 
24   0.147835 
25   0.141145 
26   0.155013 
27   0.152677 
28   0.154957 
29   0.123861 
30   0.160196 
31   0.164893 
32   0.153467 
33   0.164981 
34   0.152834 
35   0.149671 
36   0.134109 
37   0.121732 
38   0.358039 
 
$$$$ 
 
