PCCDB-ID:  69215 
public computational chemistry database (PCCDB) project, http://pccdb.org 
 
 22 21  0  0  0  0  0  0  0  0999 V2000 
    3.4625    0.8178    1.3670 C   0  0  0  0  0  0  0  0  0  0  0  0 
    5.6472   -1.4051   -6.4681 C   0  0  0  0  0  0  0  0  0  0  0  0 
    2.9788    0.6883    0.1322 C   0  0  0  0  0  0  0  0  0  0  0  0 
    6.0925   -0.7666   -5.3866 C   0  0  0  0  0  0  0  0  0  0  0  0 
    2.4777   -0.6081   -0.4293 C   0  0  0  0  0  0  0  0  0  0  0  0 
    6.7324   -1.4592   -4.2213 C   0  0  0  0  0  0  0  0  0  0  0  0 
    4.3254   -1.7622   -1.3917 C   0  0  0  0  0  0  0  0  0  0  0  0 
    5.0045   -2.1135   -2.7188 C   0  0  0  0  0  0  0  0  0  0  0  0 
    4.7064   -2.1870   -0.3276 O   0  0  0  0  0  0  0  0  0  0  0  0 
    4.7180   -3.0939   -3.3629 O   0  0  0  0  0  0  0  0  0  0  0  0 
    3.2480   -0.9936   -1.6097 O   0  0  0  0  0  0  0  0  0  0  0  0 
    5.9707   -1.2255   -2.9963 O   0  0  0  0  0  0  0  0  0  0  0  0 
    3.8005    1.7767    1.7503 H   0  0  0  0  0  0  0  0  0  0  0  0 
    3.5413   -0.0327    2.0401 H   0  0  0  0  0  0  0  0  0  0  0  0 
    5.2051   -0.8713   -7.3049 H   0  0  0  0  0  0  0  0  0  0  0  0 
    5.7063   -2.4874   -6.5550 H   0  0  0  0  0  0  0  0  0  0  0  0 
    2.9231    1.5487   -0.5335 H   0  0  0  0  0  0  0  0  0  0  0  0 
    6.0091    0.3168   -5.3096 H   0  0  0  0  0  0  0  0  0  0  0  0 
    1.4564   -0.5177   -0.8090 H   0  0  0  0  0  0  0  0  0  0  0  0 
    2.5292   -1.4128    0.3064 H   0  0  0  0  0  0  0  0  0  0  0  0 
    7.7170   -1.0422   -3.9929 H   0  0  0  0  0  0  0  0  0  0  0  0 
    6.8155   -2.5348   -4.3880 H   0  0  0  0  0  0  0  0  0  0  0  0 
  1 13  1  0  0  0  0 
  1 14  1  0  0  0  0 
  2  4  2  0  0  0  0 
  3  1  2  0  0  0  0 
  4 18  1  0  0  0  0 
  4  6  1  0  0  0  0 
  5  3  1  0  0  0  0 
  5 20  1  0  0  0  0 
  6 21  1  0  0  0  0 
  6 12  1  0  0  0  0 
  7  9  2  0  0  0  0 
  8  7  1  0  0  0  0 
 10  8  2  0  0  0  0 
 11  7  1  0  0  0  0 
 11  5  1  0  0  0  0 
 12  8  1  0  0  0  0 
 15  2  1  0  0  0  0 
 16  2  1  0  0  0  0 
 17  3  1  0  0  0  0 
 19  5  1  0  0  0  0 
 22  6  1  0  0  0  0 
M  END 
>  <HBA> 
4 
 
>  <HBD> 
0 
 
>  <TPSA> 
52.6 
 
>  <cid> 
69215 
 
>  <dipole> 
2.88 
 
>  <excitation_energy_1> 
5.49 
 
>  <excitation_energy_2> 
5.512 
 
>  <excitation_energy_3> 
6.323 
 
>  <excitation_energy_4> 
6.351 
 
>  <homo_energy> 
-7.11 
 
>  <homo_lumo_gap> 
6.77 
 
>  <logP> 
0.445 
 
>  <lumo_energy> 
-0.34 
 
>  <melting_point> 
-44.21 
 
>  <molecular_refractivity> 
42.19 
 
>  <oscillator_strength_1> 
0.0012 
 
>  <oscillator_strength_2> 
0.0004 
 
>  <oscillator_strength_3> 
0.0018 
 
>  <oscillator_strength_4> 
0.0886 
 
>  <open_babel_can_smiles> 
C=CCOC(=O)C(=O)OCC=C 
 
>  <mulliken_charges> 
22 
1   -0.315938 
2   -0.31574 
3   -0.064164 
4   -0.064328 
5   -0.10746 
6   -0.107152 
7   0.573028 
8   0.573273 
9   -0.447387 
10   -0.44751 
11   -0.44415 
12   -0.444153 
13   0.151609 
14   0.159166 
15   0.151577 
16   0.159216 
17   0.143988 
18   0.143962 
19   0.168692 
20   0.182562 
21   0.16864 
22   0.182268 
 
>  <lowdin_charges> 
22 
1   -0.305774 
2   -0.303678 
3   -0.165479 
4   -0.162754 
5   -0.126617 
6   -0.124132 
7   0.184976 
8   0.184505 
9   -0.233532 
10   -0.233138 
11   -0.17675 
12   -0.176271 
13   0.164952 
14   0.167029 
15   0.165691 
16   0.164417 
17   0.159835 
18   0.157061 
19   0.162676 
20   0.168282 
21   0.163156 
22   0.165545 
 
$$$$ 
 
