PCCDB-ID:  11978 
public computational chemistry database (PCCDB) project, http://pccdb.org 
 
 19 20  0  0  0  0  0  0  0  0999 V2000 
    1.0281   -0.0292   -0.0243 C   0  0  0  0  0  0  0  0  0  0  0  0 
    3.2790    1.1444   -0.0750 C   0  0  0  0  0  0  0  0  0  0  0  0 
    4.6691    1.1641   -0.0952 C   0  0  0  0  0  0  0  0  0  0  0  0 
    5.6150   -2.3447   -0.0911 C   0  0  0  0  0  0  0  0  0  0  0  0 
    6.8429   -1.7381   -0.1123 C   0  0  0  0  0  0  0  0  0  0  0  0 
    3.2225   -1.2781   -0.0602 C   0  0  0  0  0  0  0  0  0  0  0  0 
    2.5415   -0.0620   -0.0565 C   0  0  0  0  0  0  0  0  0  0  0  0 
    4.6267   -1.3004   -0.0810 C   0  0  0  0  0  0  0  0  0  0  0  0 
    5.3328   -0.0649   -0.0977 C   0  0  0  0  0  0  0  0  0  0  0  0 
    6.6815   -0.3644   -0.1166 N   0  0  0  0  0  0  0  0  0  0  0  0 
    0.6496    0.9937   -0.1202 H   0  0  0  0  0  0  0  0  0  0  0  0 
    0.6338   -0.4385    0.9149 H   0  0  0  0  0  0  0  0  0  0  0  0 
    0.5932   -0.6204   -0.8396 H   0  0  0  0  0  0  0  0  0  0  0  0 
    2.7383    2.0879   -0.0737 H   0  0  0  0  0  0  0  0  0  0  0  0 
    5.2143    2.1045   -0.1105 H   0  0  0  0  0  0  0  0  0  0  0  0 
    5.4340   -3.4108   -0.0827 H   0  0  0  0  0  0  0  0  0  0  0  0 
    7.8336   -2.1713   -0.1253 H   0  0  0  0  0  0  0  0  0  0  0  0 
    2.6649   -2.2127   -0.0482 H   0  0  0  0  0  0  0  0  0  0  0  0 
    7.4299    0.3101   -0.1305 H   0  0  0  0  0  0  0  0  0  0  0  0 
  1 12  1  0  0  0  0 
  2 14  1  0  0  0  0 
  2  7  2  0  0  0  0 
  3  2  1  0  0  0  0 
  4 16  1  0  0  0  0 
  4  8  1  0  0  0  0 
  5  4  2  0  0  0  0 
  6  7  1  0  0  0  0 
  6 18  1  0  0  0  0 
  7  1  1  0  0  0  0 
  8  6  2  0  0  0  0 
  9  3  2  0  0  0  0 
  9  8  1  0  0  0  0 
 10  5  1  0  0  0  0 
 10  9  1  0  0  0  0 
 11  1  1  0  0  0  0 
 13  1  1  0  0  0  0 
 15  3  1  0  0  0  0 
 17  5  1  0  0  0  0 
 19 10  1  0  0  0  0 
M  END 
>  <HBA> 
0 
 
>  <HBD> 
1 
 
>  <TPSA> 
15.79 
 
>  <cid> 
11978 
 
>  <dipole> 
1.94 
 
>  <excitation_energy_1> 
4.628 
 
>  <excitation_energy_2> 
4.757 
 
>  <excitation_energy_3> 
4.772 
 
>  <excitation_energy_4> 
5.131 
 
>  <homo_energy> 
-5.323 
 
>  <homo_lumo_gap> 
5.263 
 
>  <logP> 
2.476 
 
>  <lumo_energy> 
-0.06 
 
>  <melting_point> 
99.76 
 
>  <molecular_refractivity> 
43.26 
 
>  <oscillator_strength_1> 
0.049 
 
>  <oscillator_strength_2> 
0.0676 
 
>  <oscillator_strength_3> 
0.0019 
 
>  <oscillator_strength_4> 
0.0019 
 
>  <open_babel_can_smiles> 
Cc1ccc2c(c1)cc[nH]2 
 
>  <mulliken_charges> 
19 
1   -0.529543 
2   -0.207151 
3   -0.160888 
4   -0.22879 
5   0.048803 
6   -0.265274 
7   0.175793 
8   0.12911 
9   0.308052 
10   -0.680594 
11   0.149052 
12   0.15772 
13   0.156015 
14   0.114171 
15   0.118063 
16   0.127038 
17   0.147564 
18   0.115135 
19   0.325722 
 
>  <lowdin_charges> 
19 
1   -0.442534 
2   -0.175786 
3   -0.18876 
4   -0.224345 
5   -0.120633 
6   -0.172259 
7   -0.015287 
8   -0.02425 
9   0.028825 
10   -0.206447 
11   0.15252 
12   0.157101 
13   0.157484 
14   0.151989 
15   0.154209 
16   0.160942 
17   0.163441 
18   0.152677 
19   0.291114 
 
$$$$ 
 
