PCCDB-ID:  34700 
public computational chemistry database (PCCDB) project, http://pccdb.org 
 
 14 14  0  0  0  0  0  0  0  0999 V2000 
    3.0598    0.0119    2.0204 C   0  0  0  0  0  0  0  0  0  0  0  0 
    4.4206    0.6266    2.3474 C   0  0  0  0  0  0  0  0  0  0  0  0 
    2.7365    0.2062    0.7529 C   0  0  0  0  0  0  0  0  0  0  0  0 
    5.4578    0.2752    1.2094 C   0  0  0  0  0  0  0  0  0  0  0  0 
    3.4696    0.3888   -0.3327 C   0  0  0  0  0  0  0  0  0  0  0  0 
    4.8519   -0.2338   -0.1533 C   0  0  0  0  0  0  0  0  0  0  0  0 
    2.5615   -0.6601    2.7146 H   0  0  0  0  0  0  0  0  0  0  0  0 
    4.7812    0.2545    3.3136 H   0  0  0  0  0  0  0  0  0  0  0  0 
    4.3452    1.7153    2.4404 H   0  0  0  0  0  0  0  0  0  0  0  0 
    6.1463   -0.4906    1.5838 H   0  0  0  0  0  0  0  0  0  0  0  0 
    6.0629    1.1653    1.0067 H   0  0  0  0  0  0  0  0  0  0  0  0 
    3.2490    1.0675   -1.1526 H   0  0  0  0  0  0  0  0  0  0  0  0 
    5.5214    0.0323   -0.9796 H   0  0  0  0  0  0  0  0  0  0  0  0 
    4.7856   -1.3264   -0.1348 H   0  0  0  0  0  0  0  0  0  0  0  0 
  1  2  1  0  0  0  0 
  1  7  1  0  0  0  0 
  2  9  1  0  0  0  0 
  2  8  1  0  0  0  0 
  3  1  1  0  0  0  0 
  4 10  1  0  0  0  0 
  4  2  1  0  0  0  0 
  5  6  1  0  0  0  0 
  5  3  1  0  0  0  0 
  6 14  1  0  0  0  0 
  6  4  1  0  0  0  0 
 11  4  1  0  0  0  0 
 12  5  1  0  0  0  0 
 13  6  1  0  0  0  0 
M  RAD  3   1   2   3   3   5   2 
M  END 
>  <HBA> 
0 
 
>  <HBD> 
0 
 
>  <TPSA> 
0.0 
 
>  <cid> 
34700 
 
>  <dipole> 
1.32 
 
>  <excitation_energy_1> 
3.904 
 
>  <excitation_energy_2> 
4.655 
 
>  <excitation_energy_3> 
5.64 
 
>  <excitation_energy_4> 
6.033 
 
>  <homo_energy> 
-5.883 
 
>  <homo_lumo_gap> 
4.852 
 
>  <logP> 
1.882 
 
>  <lumo_energy> 
-1.031 
 
>  <melting_point> 
6.47 
 
>  <molecular_refractivity> 
27.07 
 
>  <oscillator_strength_1> 
0.0187 
 
>  <oscillator_strength_2> 
0.0233 
 
>  <oscillator_strength_3> 
0.0382 
 
>  <oscillator_strength_4> 
0.0711 
 
>  <open_babel_can_smiles> 
C1[CH][C][CH]CC1 
 
>  <mulliken_charges> 
14 
1   -0.181156 
2   -0.290706 
3   0.045445 
4   -0.268032 
5   -0.179307 
6   -0.291075 
7   0.141921 
8   0.14089 
9   0.160813 
10   0.14057 
11   0.14013 
12   0.141385 
13   0.139115 
14   0.160005 
 
>  <lowdin_charges> 
14 
1   -0.172818 
2   -0.267624 
3   -0.073369 
4   -0.284811 
5   -0.172137 
6   -0.266582 
7   0.163284 
8   0.150971 
9   0.156654 
10   0.149617 
11   0.147551 
12   0.162507 
13   0.150939 
14   0.155816 
 
$$$$ 
 
