PCCDB-ID:  32999 
public computational chemistry database (PCCDB) project, http://pccdb.org 
 
 23 22  0  0  0  0  0  0  0  0999 V2000 
    0.8408    0.1022    0.1585 C   0  0  0  0  0  0  0  0  0  0  0  0 
    2.3713    0.0532    0.1106 C   0  0  0  0  0  0  0  0  0  0  0  0 
    2.9181   -0.4503   -1.2316 C   0  0  0  0  0  0  0  0  0  0  0  0 
    4.4504   -0.5024   -1.2879 C   0  0  0  0  0  0  0  0  0  0  0  0 
    4.9949   -1.0017   -2.6324 C   0  0  0  0  0  0  0  0  0  0  0  0 
    6.5317   -1.0641   -2.6704 C   0  0  0  0  0  0  0  0  0  0  0  0 
    7.0753   -1.6035   -3.9814 C   0  0  0  0  0  0  0  0  0  0  0  0 
    7.8240   -0.8961   -4.8000 C   0  0  0  0  0  0  0  0  0  0  0  0 
    8.4989   -0.2597   -5.5210 O   0  0  0  0  0  0  0  0  0  0  0  0 
    0.4815    0.4623    1.1293 H   0  0  0  0  0  0  0  0  0  0  0  0 
    0.4070   -0.8913   -0.0095 H   0  0  0  0  0  0  0  0  0  0  0  0 
    0.4410    0.7714   -0.6134 H   0  0  0  0  0  0  0  0  0  0  0  0 
    2.7428   -0.5935    0.9183 H   0  0  0  0  0  0  0  0  0  0  0  0 
    2.7767    1.0548    0.3130 H   0  0  0  0  0  0  0  0  0  0  0  0 
    2.5464    0.1973   -2.0396 H   0  0  0  0  0  0  0  0  0  0  0  0 
    2.5121   -1.4523   -1.4353 H   0  0  0  0  0  0  0  0  0  0  0  0 
    4.8219   -1.1511   -0.4806 H   0  0  0  0  0  0  0  0  0  0  0  0 
    4.8552    0.4998   -1.0821 H   0  0  0  0  0  0  0  0  0  0  0  0 
    4.6439   -0.3492   -3.4431 H   0  0  0  0  0  0  0  0  0  0  0  0 
    4.5876   -2.0006   -2.8457 H   0  0  0  0  0  0  0  0  0  0  0  0 
    6.8891   -1.6981   -1.8460 H   0  0  0  0  0  0  0  0  0  0  0  0 
    6.9428   -0.0642   -2.4842 H   0  0  0  0  0  0  0  0  0  0  0  0 
    6.8248   -2.6115   -4.3008 H   0  0  0  0  0  0  0  0  0  0  0  0 
  1 10  1  0  0  0  0 
  2  1  1  0  0  0  0 
  2 14  1  0  0  0  0 
  2 13  1  0  0  0  0 
  3  2  1  0  0  0  0 
  4  3  1  0  0  0  0 
  4 18  1  0  0  0  0 
  4 17  1  0  0  0  0 
  5  4  1  0  0  0  0 
  6  5  1  0  0  0  0 
  6 22  1  0  0  0  0 
  6 21  1  0  0  0  0 
  7  6  1  0  0  0  0 
  8  7  2  0  0  0  0 
  9  8  2  0  0  0  0 
 11  1  1  0  0  0  0 
 12  1  1  0  0  0  0 
 15  3  1  0  0  0  0 
 16  3  1  0  0  0  0 
 19  5  1  0  0  0  0 
 20  5  1  0  0  0  0 
 23  7  1  0  0  0  0 
M  END 
>  <HBA> 
1 
 
>  <HBD> 
0 
 
>  <TPSA> 
17.07 
 
>  <cid> 
32999 
 
>  <dipole> 
1.98 
 
>  <excitation_energy_1> 
3.49 
 
>  <excitation_energy_2> 
5.455 
 
>  <excitation_energy_3> 
6.106 
 
>  <excitation_energy_4> 
6.251 
 
>  <homo_energy> 
-6.036 
 
>  <homo_lumo_gap> 
5.238 
 
>  <logP> 
2.345 
 
>  <lumo_energy> 
-0.797 
 
>  <melting_point> 
20.02 
 
>  <molecular_refractivity> 
40.16 
 
>  <oscillator_strength_1> 
0.0001 
 
>  <oscillator_strength_2> 
0.0171 
 
>  <oscillator_strength_3> 
0.0063 
 
>  <oscillator_strength_4> 
0.0077 
 
>  <open_babel_can_smiles> 
CCCCCCC=C=O 
 
>  <mulliken_charges> 
23 
1   -0.44171 
2   -0.247057 
3   -0.246069 
4   -0.256234 
5   -0.244885 
6   -0.280575 
7   -0.250515 
8   0.408322 
9   -0.384326 
10   0.142405 
11   0.141433 
12   0.141983 
13   0.130295 
14   0.130837 
15   0.128802 
16   0.127353 
17   0.12855 
18   0.129203 
19   0.138711 
20   0.130186 
21   0.149708 
22   0.146114 
23   0.177471 
 
>  <lowdin_charges> 
23 
1   -0.445039 
2   -0.272339 
3   -0.274225 
4   -0.276065 
5   -0.274502 
6   -0.245227 
7   -0.328778 
8   0.177803 
9   -0.112921 
10   0.149524 
11   0.145893 
12   0.147624 
13   0.139738 
14   0.138536 
15   0.139396 
16   0.137158 
17   0.1391 
18   0.138048 
19   0.14497 
20   0.138925 
21   0.149836 
22   0.150425 
23   0.192122 
 
$$$$ 
 
