PCCDB-ID:  62184 
public computational chemistry database (PCCDB) project, http://pccdb.org 
 
 34 33  0  0  0  0  0  0  0  0999 V2000 
    4.0263    2.7728   -8.6724 C   0  0  0  0  0  0  0  0  0  0  0  0 
   14.1911    0.3234   -3.1503 C   0  0  0  0  0  0  0  0  0  0  0  0 
    3.6455    2.5711   -7.1955 C   0  0  0  0  0  0  0  0  0  0  0  0 
   13.8151    1.7755   -2.8087 C   0  0  0  0  0  0  0  0  0  0  0  0 
    4.7062    3.0627   -6.2484 C   0  0  0  0  0  0  0  0  0  0  0  0 
   12.4843    1.8834   -2.1151 C   0  0  0  0  0  0  0  0  0  0  0  0 
    5.3489    2.3140   -5.3476 C   0  0  0  0  0  0  0  0  0  0  0  0 
   11.4304    2.5634   -2.5730 C   0  0  0  0  0  0  0  0  0  0  0  0 
    6.4212    2.8119   -4.4154 C   0  0  0  0  0  0  0  0  0  0  0  0 
   10.1010    2.6515   -1.8634 C   0  0  0  0  0  0  0  0  0  0  0  0 
    7.7797    2.1781   -4.7324 C   0  0  0  0  0  0  0  0  0  0  0  0 
    8.9647    2.0354   -2.6679 C   0  0  0  0  0  0  0  0  0  0  0  0 
    8.2849    1.0986   -2.3108 O   0  0  0  0  0  0  0  0  0  0  0  0 
    8.8127    2.6765   -3.8513 O   0  0  0  0  0  0  0  0  0  0  0  0 
    3.2200    2.4396   -9.3356 H   0  0  0  0  0  0  0  0  0  0  0  0 
    4.9308    2.2083   -8.9247 H   0  0  0  0  0  0  0  0  0  0  0  0 
    4.2223    3.8298   -8.8898 H   0  0  0  0  0  0  0  0  0  0  0  0 
   15.1777    0.2746   -3.6251 H   0  0  0  0  0  0  0  0  0  0  0  0 
   13.4598   -0.1196   -3.8352 H   0  0  0  0  0  0  0  0  0  0  0  0 
   14.2228   -0.3002   -2.2489 H   0  0  0  0  0  0  0  0  0  0  0  0 
    3.4440    1.5093   -7.0053 H   0  0  0  0  0  0  0  0  0  0  0  0 
    2.7050    3.1073   -6.9986 H   0  0  0  0  0  0  0  0  0  0  0  0 
   13.8051    2.3822   -3.7231 H   0  0  0  0  0  0  0  0  0  0  0  0 
   14.5976    2.1993   -2.1614 H   0  0  0  0  0  0  0  0  0  0  0  0 
    4.9577    4.1236   -6.3253 H   0  0  0  0  0  0  0  0  0  0  0  0 
   12.3955    1.3462   -1.1679 H   0  0  0  0  0  0  0  0  0  0  0  0 
    5.1002    1.2535   -5.2683 H   0  0  0  0  0  0  0  0  0  0  0  0 
   11.4995    3.0955   -3.5212 H   0  0  0  0  0  0  0  0  0  0  0  0 
    6.1653    2.5616   -3.3777 H   0  0  0  0  0  0  0  0  0  0  0  0 
    6.5106    3.9028   -4.4812 H   0  0  0  0  0  0  0  0  0  0  0  0 
    9.8421    3.7051   -1.6844 H   0  0  0  0  0  0  0  0  0  0  0  0 
   10.1323    2.1375   -0.8997 H   0  0  0  0  0  0  0  0  0  0  0  0 
    8.1124    2.4517   -5.7365 H   0  0  0  0  0  0  0  0  0  0  0  0 
    7.7341    1.0893   -4.6463 H   0  0  0  0  0  0  0  0  0  0  0  0 
  1  3  1  0  0  0  0 
  2  4  1  0  0  0  0 
  2 20  1  0  0  0  0 
  3 21  1  0  0  0  0 
  3 22  1  0  0  0  0 
  3  5  1  0  0  0  0 
  4 24  1  0  0  0  0 
  4  6  1  0  0  0  0 
  5  7  2  0  0  0  0 
  6 26  1  0  0  0  0 
  7 27  1  0  0  0  0 
  7  9  1  0  0  0  0 
  8  6  2  0  0  0  0 
  8 10  1  0  0  0  0 
  9 29  1  0  0  0  0 
 10 31  1  0  0  0  0 
 10 32  1  0  0  0  0 
 11 34  1  0  0  0  0 
 11  9  1  0  0  0  0 
 11 14  1  0  0  0  0 
 12 13  2  0  0  0  0 
 12 10  1  0  0  0  0 
 14 12  1  0  0  0  0 
 15  1  1  0  0  0  0 
 16  1  1  0  0  0  0 
 17  1  1  0  0  0  0 
 18  2  1  0  0  0  0 
 19  2  1  0  0  0  0 
 23  4  1  0  0  0  0 
 25  5  1  0  0  0  0 
 28  8  1  0  0  0  0 
 30  9  1  0  0  0  0 
 33 11  1  0  0  0  0 
M  END 
>  <HBA> 
2 
 
>  <HBD> 
0 
 
>  <TPSA> 
26.3 
 
>  <cid> 
62184 
 
>  <dipole> 
1.82 
 
>  <excitation_energy_1> 
5.493 
 
>  <excitation_energy_2> 
6.073 
 
>  <excitation_energy_3> 
6.189 
 
>  <excitation_energy_4> 
6.327 
 
>  <homo_energy> 
-6.531 
 
>  <homo_lumo_gap> 
6.732 
 
>  <logP> 
3.242 
 
>  <lumo_energy> 
0.201 
 
>  <melting_point> 
1.47 
 
>  <molecular_refractivity> 
60.13 
 
>  <oscillator_strength_1> 
0.0361 
 
>  <oscillator_strength_2> 
0.0228 
 
>  <oscillator_strength_3> 
0.0084 
 
>  <oscillator_strength_4> 
0.0324 
 
>  <open_babel_can_smiles> 
CC/C=C/CCOC(=O)C/C=C/CC 
 
>  <mulliken_charges> 
34 
1   -0.440231 
2   -0.440289 
3   -0.296986 
4   -0.297266 
5   -0.083118 
6   -0.078866 
7   -0.111681 
8   -0.106871 
9   -0.323618 
10   -0.390092 
11   -0.042901 
12   0.613324 
13   -0.473194 
14   -0.458999 
15   0.145066 
16   0.149395 
17   0.143827 
18   0.144246 
19   0.152508 
20   0.145321 
21   0.140859 
22   0.144326 
23   0.140509 
24   0.143717 
25   0.116726 
26   0.121901 
27   0.124954 
28   0.136843 
29   0.167895 
30   0.14703 
31   0.171641 
32   0.171584 
33   0.154457 
34   0.167984 
 
>  <lowdin_charges> 
34 
1   -0.442732 
2   -0.443516 
3   -0.26729 
4   -0.26929 
5   -0.159253 
6   -0.158341 
7   -0.171641 
8   -0.170967 
9   -0.279269 
10   -0.288985 
11   -0.129372 
12   0.201036 
13   -0.265336 
14   -0.19746 
15   0.151549 
16   0.150616 
17   0.146354 
18   0.149854 
19   0.153128 
20   0.148825 
21   0.14535 
22   0.148999 
23   0.146865 
24   0.149869 
25   0.143602 
26   0.147373 
27   0.147556 
28   0.155066 
29   0.16135 
30   0.148867 
31   0.169709 
32   0.169001 
33   0.152906 
34   0.155575 
 
$$$$ 
 
