PCCDB-ID:  68266 
public computational chemistry database (PCCDB) project, http://pccdb.org 
 
 21 22  0  0  0  0  0  0  0  0999 V2000 
    2.4219    0.6587   -0.4164 C   0  0  0  0  0  0  0  0  0  0  0  0 
    2.4000   -0.7333   -0.3227 C   0  0  0  0  0  0  0  0  0  0  0  0 
    1.2613    1.3897   -0.1570 C   0  0  0  0  0  0  0  0  0  0  0  0 
    1.2198   -1.3865    0.0360 C   0  0  0  0  0  0  0  0  0  0  0  0 
   -1.2090    1.4932    0.4802 C   0  0  0  0  0  0  0  0  0  0  0  0 
   -2.4016    0.7868   -0.1875 C   0  0  0  0  0  0  0  0  0  0  0  0 
   -1.2253   -1.3389    0.7332 C   0  0  0  0  0  0  0  0  0  0  0  0 
    0.0773    0.7439    0.2089 C   0  0  0  0  0  0  0  0  0  0  0  0 
    0.0584   -0.6591    0.3104 C   0  0  0  0  0  0  0  0  0  0  0  0 
   -2.4912   -0.6970    0.1581 C   0  0  0  0  0  0  0  0  0  0  0  0 
   -3.5104   -1.3374   -0.0028 O   0  0  0  0  0  0  0  0  0  0  0  0 
    3.3357    1.1738   -0.7001 H   0  0  0  0  0  0  0  0  0  0  0  0 
    3.2964   -1.3102   -0.5331 H   0  0  0  0  0  0  0  0  0  0  0  0 
    1.2722    2.4740   -0.2441 H   0  0  0  0  0  0  0  0  0  0  0  0 
    1.1991   -2.4719    0.1043 H   0  0  0  0  0  0  0  0  0  0  0  0 
   -1.3868    1.5539    1.5650 H   0  0  0  0  0  0  0  0  0  0  0  0 
   -1.1356    2.5271    0.1255 H   0  0  0  0  0  0  0  0  0  0  0  0 
   -2.2977    0.8477   -1.2805 H   0  0  0  0  0  0  0  0  0  0  0  0 
   -3.3591    1.2554    0.0628 H   0  0  0  0  0  0  0  0  0  0  0  0 
   -1.3363   -1.2746    1.8299 H   0  0  0  0  0  0  0  0  0  0  0  0 
   -1.2359   -2.4054    0.4896 H   0  0  0  0  0  0  0  0  0  0  0  0 
  1  2  2  0  0  0  0 
  1  3  1  0  0  0  0 
  2  4  1  0  0  0  0 
  3  8  2  0  0  0  0 
  4 15  1  0  0  0  0 
  4  9  2  0  0  0  0 
  5 16  1  0  0  0  0 
  6 19  1  0  0  0  0 
  6 10  1  0  0  0  0 
  6  5  1  0  0  0  0 
  7 20  1  0  0  0  0 
  8  9  1  0  0  0  0 
  8  5  1  0  0  0  0 
  9  7  1  0  0  0  0 
 10  7  1  0  0  0  0 
 11 10  2  0  0  0  0 
 12  1  1  0  0  0  0 
 13  2  1  0  0  0  0 
 14  3  1  0  0  0  0 
 17  5  1  0  0  0  0 
 18  6  1  0  0  0  0 
 21  7  1  0  0  0  0 
M  END 
>  <HBA> 
1 
 
>  <HBD> 
0 
 
>  <TPSA> 
17.07 
 
>  <cid> 
68266 
 
>  <dipole> 
2.7 
 
>  <excitation_energy_1> 
4.234 
 
>  <excitation_energy_2> 
5.112 
 
>  <excitation_energy_3> 
5.394 
 
>  <excitation_energy_4> 
5.478 
 
>  <homo_energy> 
-6.332 
 
>  <homo_lumo_gap> 
5.848 
 
>  <logP> 
1.744 
 
>  <lumo_energy> 
-0.484 
 
>  <melting_point> 
54.63 
 
>  <molecular_refractivity> 
44.07 
 
>  <oscillator_strength_1> 
0.0012 
 
>  <oscillator_strength_2> 
0.0065 
 
>  <oscillator_strength_3> 
0.0056 
 
>  <oscillator_strength_4> 
0.0077 
 
>  <open_babel_can_smiles> 
O=C1CCc2c(C1)cccc2 
 
>  <mulliken_charges> 
21 
1   -0.127121 
2   -0.128802 
3   -0.194856 
4   -0.189009 
5   -0.362502 
6   -0.352305 
7   -0.450046 
8   0.129113 
9   0.125141 
10   0.462059 
11   -0.448961 
12   0.129949 
13   0.130524 
14   0.124872 
15   0.127554 
16   0.157393 
17   0.151962 
18   0.179836 
19   0.171782 
20   0.184753 
21   0.178664 
 
>  <lowdin_charges> 
21 
1   -0.157923 
2   -0.157745 
3   -0.162033 
4   -0.160309 
5   -0.273292 
6   -0.306206 
7   -0.303879 
8   -0.016494 
9   -0.016559 
10   0.164874 
11   -0.23542 
12   0.158779 
13   0.159214 
14   0.153271 
15   0.15474 
16   0.152279 
17   0.155709 
18   0.172368 
19   0.170253 
20   0.176172 
21   0.172202 
 
$$$$ 
 
