PCCDB-ID:  14346 
public computational chemistry database (PCCDB) project, http://pccdb.org 
 
 26 27  0  0  0  0  0  0  0  0999 V2000 
    3.6765   -2.3673   -3.4295 C   0  0  0  0  0  0  0  0  0  0  0  0 
    3.6123   -1.0417   -3.8605 C   0  0  0  0  0  0  0  0  0  0  0  0 
    3.6307   -2.6578   -2.0625 C   0  0  0  0  0  0  0  0  0  0  0  0 
    3.5243   -0.0060   -2.9289 C   0  0  0  0  0  0  0  0  0  0  0  0 
    3.5218   -1.6265   -1.1341 C   0  0  0  0  0  0  0  0  0  0  0  0 
    4.9938    2.4078   -1.5236 C   0  0  0  0  0  0  0  0  0  0  0  0 
    3.3713    3.1865    0.0785 C   0  0  0  0  0  0  0  0  0  0  0  0 
    5.5302    3.6866   -1.6057 C   0  0  0  0  0  0  0  0  0  0  0  0 
    3.8864    4.4684   -0.0093 C   0  0  0  0  0  0  0  0  0  0  0  0 
    3.4863   -0.2878   -1.5550 C   0  0  0  0  0  0  0  0  0  0  0  0 
    3.8979    2.1305   -0.6884 C   0  0  0  0  0  0  0  0  0  0  0  0 
    4.9791    4.7431   -0.8573 C   0  0  0  0  0  0  0  0  0  0  0  0 
    3.3139    0.7731   -0.5024 C   0  0  0  0  0  0  0  0  0  0  0  0 
    5.5345    6.0133   -0.9056 N   0  0  0  0  0  0  0  0  0  0  0  0 
    2.6838    0.5029    0.5179 O   0  0  0  0  0  0  0  0  0  0  0  0 
    3.7538   -3.1728   -4.1551 H   0  0  0  0  0  0  0  0  0  0  0  0 
    3.6263   -0.8122   -4.9227 H   0  0  0  0  0  0  0  0  0  0  0  0 
    3.6719   -3.6897   -1.7240 H   0  0  0  0  0  0  0  0  0  0  0  0 
    3.4554    1.0215   -3.2723 H   0  0  0  0  0  0  0  0  0  0  0  0 
    3.4589   -1.8353   -0.0710 H   0  0  0  0  0  0  0  0  0  0  0  0 
    5.4524    1.6099   -2.0985 H   0  0  0  0  0  0  0  0  0  0  0  0 
    2.5414    2.9715    0.7441 H   0  0  0  0  0  0  0  0  0  0  0  0 
    6.3896    3.8750   -2.2452 H   0  0  0  0  0  0  0  0  0  0  0  0 
    3.4560    5.2722    0.5841 H   0  0  0  0  0  0  0  0  0  0  0  0 
    6.0771    6.2350   -1.7298 H   0  0  0  0  0  0  0  0  0  0  0  0 
    4.9359    6.7749   -0.6147 H   0  0  0  0  0  0  0  0  0  0  0  0 
  1  3  1  0  0  0  0 
  2  1  2  0  0  0  0 
  2  4  1  0  0  0  0 
  3 18  1  0  0  0  0 
  3  5  2  0  0  0  0 
  4 10  2  0  0  0  0 
  5 20  1  0  0  0  0 
  6 11  1  0  0  0  0 
  7 22  1  0  0  0  0 
  8  6  2  0  0  0  0 
  8 12  1  0  0  0  0 
  9  7  1  0  0  0  0 
  9 24  1  0  0  0  0 
 10  5  1  0  0  0  0 
 10 13  1  0  0  0  0 
 11 13  1  0  0  0  0 
 11  7  2  0  0  0  0 
 12  9  2  0  0  0  0 
 13 15  2  0  0  0  0 
 14 12  1  0  0  0  0 
 14 26  1  0  0  0  0 
 16  1  1  0  0  0  0 
 17  2  1  0  0  0  0 
 19  4  1  0  0  0  0 
 21  6  1  0  0  0  0 
 23  8  1  0  0  0  0 
 25 14  1  0  0  0  0 
M  END 
>  <HBA> 
2 
 
>  <HBD> 
1 
 
>  <TPSA> 
43.09 
 
>  <cid> 
14346 
 
>  <dipole> 
4.75 
 
>  <excitation_energy_1> 
3.624 
 
>  <excitation_energy_2> 
3.977 
 
>  <excitation_energy_3> 
4.56 
 
>  <excitation_energy_4> 
4.669 
 
>  <homo_energy> 
-5.742 
 
>  <homo_lumo_gap> 
4.387 
 
>  <logP> 
3.081 
 
>  <lumo_energy> 
-1.355 
 
>  <melting_point> 
113.91 
 
>  <molecular_refractivity> 
60.72 
 
>  <oscillator_strength_1> 
0.0069 
 
>  <oscillator_strength_2> 
0.3113 
 
>  <oscillator_strength_3> 
0.0037 
 
>  <oscillator_strength_4> 
0.0154 
 
>  <open_babel_can_smiles> 
Nc1ccc(cc1)C(=O)c1ccccc1 
 
>  <mulliken_charges> 
26 
1   -0.12085 
2   -0.137322 
3   -0.135785 
4   -0.177108 
5   -0.150705 
6   -0.18766 
7   -0.160396 
8   -0.183283 
9   -0.17801 
10   0.074164 
11   0.068609 
12   0.333832 
13   0.314515 
14   -0.789802 
15   -0.47956 
16   0.133175 
17   0.131998 
18   0.134705 
19   0.144623 
20   0.156262 
21   0.147555 
22   0.159144 
23   0.121922 
24   0.124215 
25   0.327438 
26   0.328324 
 
>  <lowdin_charges> 
26 
1   -0.147513 
2   -0.158013 
3   -0.154839 
4   -0.154114 
5   -0.130359 
6   -0.139662 
7   -0.116282 
8   -0.205622 
9   -0.201495 
10   -0.038977 
11   -0.074207 
12   0.076654 
13   0.151174 
14   -0.475182 
15   -0.261527 
16   0.160251 
17   0.157065 
18   0.158987 
19   0.16356 
20   0.171641 
21   0.168269 
22   0.175694 
23   0.155108 
24   0.156833 
25   0.280706 
26   0.281852 
 
$$$$ 
 
