PCCDB-ID:  61164 
public computational chemistry database (PCCDB) project, http://pccdb.org 
 
 23 23  0  0  0  0  0  0  0  0999 V2000 
    1.2146   -1.7251    1.1712 C   0  0  0  0  0  0  0  0  0  0  0  0 
    9.3031   -1.8188    1.0730 C   0  0  0  0  0  0  0  0  0  0  0  0 
    2.6528   -2.2329    1.2384 C   0  0  0  0  0  0  0  0  0  0  0  0 
    7.2028   -0.3871    1.0586 C   0  0  0  0  0  0  0  0  0  0  0  0 
    6.9458   -2.7622    1.0559 C   0  0  0  0  0  0  0  0  0  0  0  0 
    5.8223   -0.2311    1.0241 C   0  0  0  0  0  0  0  0  0  0  0  0 
    5.5575   -2.6257    1.0270 C   0  0  0  0  0  0  0  0  0  0  0  0 
    7.8006   -1.6558    1.0694 C   0  0  0  0  0  0  0  0  0  0  0  0 
    4.9675   -1.3499    1.0034 C   0  0  0  0  0  0  0  0  0  0  0  0 
    3.5863   -1.1603    0.9284 N   0  0  0  0  0  0  0  0  0  0  0  0 
    0.5102   -2.5392    1.3695 H   0  0  0  0  0  0  0  0  0  0  0  0 
    0.9950   -1.3106    0.1815 H   0  0  0  0  0  0  0  0  0  0  0  0 
    1.0349   -0.9416    1.9185 H   0  0  0  0  0  0  0  0  0  0  0  0 
    9.7988   -0.9563    1.5323 H   0  0  0  0  0  0  0  0  0  0  0  0 
    9.7051   -1.9176    0.0549 H   0  0  0  0  0  0  0  0  0  0  0  0 
    9.6092   -2.7136    1.6269 H   0  0  0  0  0  0  0  0  0  0  0  0 
    2.7869   -3.0366    0.5035 H   0  0  0  0  0  0  0  0  0  0  0  0 
    2.8499   -2.6768    2.2306 H   0  0  0  0  0  0  0  0  0  0  0  0 
    7.8322    0.5004    1.0786 H   0  0  0  0  0  0  0  0  0  0  0  0 
    7.3704   -3.7642    1.0765 H   0  0  0  0  0  0  0  0  0  0  0  0 
    5.3912    0.7684    1.0130 H   0  0  0  0  0  0  0  0  0  0  0  0 
    4.9380   -3.5164    1.0283 H   0  0  0  0  0  0  0  0  0  0  0  0 
    3.2882   -0.2573    1.2780 H   0  0  0  0  0  0  0  0  0  0  0  0 
  1  3  1  0  0  0  0 
  1 11  1  0  0  0  0 
  1 13  1  0  0  0  0 
  2 14  1  0  0  0  0 
  2 16  1  0  0  0  0 
  3 18  1  0  0  0  0 
  4  8  2  0  0  0  0 
  4 19  1  0  0  0  0 
  5  8  1  0  0  0  0 
  5 20  1  0  0  0  0 
  6  4  1  0  0  0  0 
  7 22  1  0  0  0  0 
  7  5  2  0  0  0  0 
  8  2  1  0  0  0  0 
  9  6  2  0  0  0  0 
  9  7  1  0  0  0  0 
 10  9  1  0  0  0  0 
 10  3  1  0  0  0  0 
 10 23  1  0  0  0  0 
 12  1  1  0  0  0  0 
 15  2  1  0  0  0  0 
 17  3  1  0  0  0  0 
 21  6  1  0  0  0  0 
M  END 
>  <HBA> 
1 
 
>  <HBD> 
1 
 
>  <TPSA> 
12.03 
 
>  <cid> 
61164 
 
>  <dipole> 
1.58 
 
>  <excitation_energy_1> 
4.445 
 
>  <excitation_energy_2> 
4.666 
 
>  <excitation_energy_3> 
4.93 
 
>  <excitation_energy_4> 
5.059 
 
>  <homo_energy> 
-5.026 
 
>  <homo_lumo_gap> 
5.358 
 
>  <logP> 
2.5 
 
>  <lumo_energy> 
0.332 
 
>  <melting_point> 
42.04 
 
>  <molecular_refractivity> 
45.52 
 
>  <oscillator_strength_1> 
0.0322 
 
>  <oscillator_strength_2> 
0.0105 
 
>  <oscillator_strength_3> 
0.0162 
 
>  <oscillator_strength_4> 
0.0749 
 
>  <open_babel_can_smiles> 
CCNc1ccc(cc1)C 
 
>  <mulliken_charges> 
23 
1   -0.469227 
2   -0.528813 
3   -0.100775 
4   -0.187063 
5   -0.192781 
6   -0.187484 
7   -0.180983 
8   0.17657 
9   0.351617 
10   -0.656062 
11   0.154522 
12   0.162238 
13   0.144353 
14   0.150037 
15   0.158209 
16   0.151175 
17   0.151898 
18   0.133369 
19   0.115252 
20   0.114817 
21   0.111001 
22   0.120479 
23   0.307649 
 
>  <lowdin_charges> 
23 
1   -0.449712 
2   -0.441942 
3   -0.191986 
4   -0.15959 
5   -0.156832 
6   -0.198366 
7   -0.209202 
8   -0.027093 
9   0.056381 
10   -0.304576 
11   0.159328 
12   0.156813 
13   0.148175 
14   0.154763 
15   0.155496 
16   0.154977 
17   0.147157 
18   0.128681 
19   0.152198 
20   0.150588 
21   0.149012 
22   0.156705 
23   0.269024 
 
$$$$ 
 
