PCCDB-ID:  21288 
public computational chemistry database (PCCDB) project, http://pccdb.org 
 
 18 18  0  0  0  0  0  0  0  0999 V2000 
    3.3947    0.8341    0.8089 C   0  0  0  0  0  0  0  0  0  0  0  0 
    3.2027   -1.4272   -3.3645 C   0  0  0  0  0  0  0  0  0  0  0  0 
    1.1404   -1.7096   -2.0885 C   0  0  0  0  0  0  0  0  0  0  0  0 
    2.6733   -2.1892   -4.3565 C   0  0  0  0  0  0  0  0  0  0  0  0 
    0.6631   -2.4658   -3.1142 C   0  0  0  0  0  0  0  0  0  0  0  0 
    2.4860   -0.0269   -0.0539 C   0  0  0  0  0  0  0  0  0  0  0  0 
    2.4730   -1.1284   -2.1488 C   0  0  0  0  0  0  0  0  0  0  0  0 
    1.4096   -2.7098   -4.2370 N   0  0  0  0  0  0  0  0  0  0  0  0 
    3.0927   -0.3782   -1.2549 N   0  0  0  0  0  0  0  0  0  0  0  0 
    1.3585   -0.3346    0.3373 O   0  0  0  0  0  0  0  0  0  0  0  0 
    4.3199    0.2916    1.0358 H   0  0  0  0  0  0  0  0  0  0  0  0 
    2.8867    1.1063    1.7362 H   0  0  0  0  0  0  0  0  0  0  0  0 
    3.6866    1.7380    0.2621 H   0  0  0  0  0  0  0  0  0  0  0  0 
    4.2017   -1.0189   -3.4641 H   0  0  0  0  0  0  0  0  0  0  0  0 
    0.5355   -1.5286   -1.2125 H   0  0  0  0  0  0  0  0  0  0  0  0 
    3.2004   -2.4256   -5.2738 H   0  0  0  0  0  0  0  0  0  0  0  0 
   -0.3245   -2.9142   -3.1017 H   0  0  0  0  0  0  0  0  0  0  0  0 
    1.0264   -3.2742   -4.9812 H   0  0  0  0  0  0  0  0  0  0  0  0 
  1 11  1  0  0  0  0 
  1 12  1  0  0  0  0 
  2  7  1  0  0  0  0 
  3 15  1  0  0  0  0 
  4  8  1  0  0  0  0 
  4  2  2  0  0  0  0 
  5 17  1  0  0  0  0 
  5  3  2  0  0  0  0 
  6 10  2  0  0  0  0 
  6  1  1  0  0  0  0 
  7  3  1  0  0  0  0 
  7  9  2  0  0  0  0 
  8  5  1  0  0  0  0 
  9  6  1  0  0  0  0 
 13  1  1  0  0  0  0 
 14  2  1  0  0  0  0 
 16  4  1  0  0  0  0 
 18  8  1  0  0  0  0 
M  END 
>  <HBA> 
3 
 
>  <HBD> 
1 
 
>  <TPSA> 
41.99 
 
>  <cid> 
21288 
 
>  <dipole> 
7.22 
 
>  <excitation_energy_1> 
3.268 
 
>  <excitation_energy_2> 
4.262 
 
>  <excitation_energy_3> 
4.35 
 
>  <excitation_energy_4> 
4.457 
 
>  <homo_energy> 
-5.608 
 
>  <homo_lumo_gap> 
4.446 
 
>  <logP> 
1.113 
 
>  <lumo_energy> 
-1.162 
 
>  <melting_point> 
74.1 
 
>  <molecular_refractivity> 
38.55 
 
>  <oscillator_strength_1> 
0.0005 
 
>  <oscillator_strength_2> 
0.0001 
 
>  <oscillator_strength_3> 
0.2873 
 
>  <oscillator_strength_4> 
0.0002 
 
>  <open_babel_can_smiles> 
CC(=O)N=c1cc[nH]cc1 
 
>  <mulliken_charges> 
18 
1   -0.504258 
2   -0.188678 
3   -0.189195 
4   0.083055 
5   0.076449 
6   0.517847 
7   0.339632 
8   -0.581652 
9   -0.582133 
10   -0.501622 
11   0.161344 
12   0.15568 
13   0.161232 
14   0.156626 
15   0.206048 
16   0.170088 
17   0.17225 
18   0.347287 
 
>  <lowdin_charges> 
18 
1   -0.466361 
2   -0.177527 
3   -0.204793 
4   -0.09264 
5   -0.084383 
6   0.160234 
7   0.095827 
8   -0.169049 
9   -0.274518 
10   -0.308268 
11   0.166497 
12   0.158769 
13   0.166562 
14   0.179589 
15   0.203652 
16   0.173128 
17   0.172169 
18   0.301111 
 
$$$$ 
 
