PCCDB-ID:  17759 
public computational chemistry database (PCCDB) project, http://pccdb.org 
 
 36 36  0  0  1  0  0  0  0  0999 V2000 
    1.9698    1.9061   -0.9330 C   0  0  0  0  0  0  0  0  0  0  0  0 
    0.2671   -2.6246    1.6888 C   0  0  0  0  0  0  0  0  0  0  0  0 
   -1.4451   -2.1851    0.0663 C   0  0  0  0  0  0  0  0  0  0  0  0 
    3.1705    0.9880   -0.6741 C   0  0  0  0  0  0  0  0  0  0  0  0 
    7.1347   -2.1318   -1.2924 C   0  0  0  0  0  0  0  0  0  0  0  0 
    6.3712   -2.1050   -2.4582 C   0  0  0  0  0  0  0  0  0  0  0  0 
    6.5919   -1.6290   -0.1088 C   0  0  0  0  0  0  0  0  0  0  0  0 
    5.0767   -1.5804   -2.4444 C   0  0  0  0  0  0  0  0  0  0  0  0 
    5.2995   -1.1066   -0.0953 C   0  0  0  0  0  0  0  0  0  0  0  0 
    2.2306   -1.4474   -0.3055 C   0  0  0  0  0  0  0  0  0  0  0  0 
    0.7229   -1.1676   -0.2052 C   0  0  0  0  0  0  0  0  0  0  0  0 
    2.5000   -0.4699   -2.5545 C   0  0  0  0  0  0  0  0  0  0  0  0 
    4.5221   -1.0730   -1.2635 C   0  0  0  0  0  0  0  0  0  0  0  0 
    3.0907   -0.4902   -1.2021 C   0  0  1  0  0  0  0  0  0  0  0  0 
    2.0058   -0.4415   -3.6052 N   0  0  0  0  0  0  0  0  0  0  0  0 
   -0.0122   -2.3335    0.2884 N   0  0  0  0  0  0  0  0  0  0  0  0 
    1.7618    1.9997   -2.0035 H   0  0  0  0  0  0  0  0  0  0  0  0 
    2.1925    2.9073   -0.5475 H   0  0  0  0  0  0  0  0  0  0  0  0 
    1.0568    1.5605   -0.4411 H   0  0  0  0  0  0  0  0  0  0  0  0 
   -0.2937   -3.5143    1.9941 H   0  0  0  0  0  0  0  0  0  0  0  0 
   -0.0120   -1.7942    2.3693 H   0  0  0  0  0  0  0  0  0  0  0  0 
    1.3301   -2.8393    1.8328 H   0  0  0  0  0  0  0  0  0  0  0  0 
   -1.9605   -3.0989    0.3814 H   0  0  0  0  0  0  0  0  0  0  0  0 
   -1.6412   -2.0346   -1.0005 H   0  0  0  0  0  0  0  0  0  0  0  0 
   -1.8904   -1.3354    0.6217 H   0  0  0  0  0  0  0  0  0  0  0  0 
    3.3712    0.9357    0.4024 H   0  0  0  0  0  0  0  0  0  0  0  0 
    4.0565    1.4423   -1.1311 H   0  0  0  0  0  0  0  0  0  0  0  0 
    8.1412   -2.5408   -1.3042 H   0  0  0  0  0  0  0  0  0  0  0  0 
    6.7790   -2.4933   -3.3875 H   0  0  0  0  0  0  0  0  0  0  0  0 
    7.1741   -1.6419    0.8088 H   0  0  0  0  0  0  0  0  0  0  0  0 
    4.4989   -1.5660   -3.3632 H   0  0  0  0  0  0  0  0  0  0  0  0 
    4.8991   -0.7217    0.8383 H   0  0  0  0  0  0  0  0  0  0  0  0 
    2.3468   -2.4624   -0.7011 H   0  0  0  0  0  0  0  0  0  0  0  0 
    2.6903   -1.4400    0.6882 H   0  0  0  0  0  0  0  0  0  0  0  0 
    0.3338   -0.9373   -1.2032 H   0  0  0  0  0  0  0  0  0  0  0  0 
    0.5318   -0.2802    0.4294 H   0  0  0  0  0  0  0  0  0  0  0  0 
  1  4  1  0  0  0  0 
  1 18  1  0  0  0  0 
  1 19  1  0  0  0  0 
  2 22  1  0  0  0  0 
  2 20  1  0  0  0  0 
  2 21  1  0  0  0  0 
  3 16  1  0  0  0  0 
  3 23  1  0  0  0  0 
  3 25  1  0  0  0  0 
  4 26  1  0  0  0  0 
  5  7  2  0  0  0  0 
  6  8  2  0  0  0  0 
  6  5  1  0  0  0  0 
  7  9  1  0  0  0  0 
  7 30  1  0  0  0  0 
  8 13  1  0  0  0  0 
  9 32  1  0  0  0  0 
 10 11  1  0  0  0  0 
 10 34  1  0  0  0  0 
 11 16  1  0  0  0  0 
 11 36  1  0  0  0  0 
 13 14  1  0  0  0  0 
 13  9  2  0  0  0  0 
 14 12  1  6  0  0  0 
 14  4  1  0  0  0  0 
 14 10  1  0  0  0  0 
 15 12  3  0  0  0  0 
 16  2  1  0  0  0  0 
 17  1  1  0  0  0  0 
 24  3  1  0  0  0  0 
 27  4  1  0  0  0  0 
 28  5  1  0  0  0  0 
 29  6  1  0  0  0  0 
 31  8  1  0  0  0  0 
 33 10  1  0  0  0  0 
 35 11  1  0  0  0  0 
M  END 
>  <HBA> 
2 
 
>  <HBD> 
0 
 
>  <TPSA> 
27.03 
 
>  <cid> 
17759 
 
>  <dipole> 
3.81 
 
>  <excitation_energy_1> 
4.944 
 
>  <excitation_energy_2> 
5.064 
 
>  <excitation_energy_3> 
5.297 
 
>  <excitation_energy_4> 
5.345 
 
>  <homo_energy> 
-5.84 
 
>  <homo_lumo_gap> 
5.573 
 
>  <logP> 
2.81 
 
>  <lumo_energy> 
-0.267 
 
>  <melting_point> 
45.98 
 
>  <molecular_refractivity> 
67.58 
 
>  <oscillator_strength_1> 
0.0033 
 
>  <oscillator_strength_2> 
0.0043 
 
>  <oscillator_strength_3> 
0.0252 
 
>  <oscillator_strength_4> 
0.0008 
 
>  <open_babel_can_smiles> 
CC[C@@](c1ccccc1)(CCN(C)C)C#N 
 
>  <mulliken_charges> 
36 
1   -0.467927 
2   -0.302731 
3   -0.296513 
4   -0.26026 
5   -0.122838 
6   -0.137569 
7   -0.136735 
8   -0.182681 
9   -0.169544 
10   -0.270806 
11   -0.131188 
12   0.373497 
13   0.142588 
14   -0.065012 
15   -0.517341 
16   -0.368158 
17   0.174154 
18   0.150088 
19   0.156929 
20   0.152058 
21   0.115216 
22   0.153244 
23   0.149403 
24   0.157207 
25   0.116447 
26   0.144331 
27   0.161232 
28   0.132741 
29   0.137158 
30   0.132806 
31   0.158788 
32   0.127319 
33   0.171836 
34   0.14591 
35   0.161159 
36   0.115189 
 
>  <lowdin_charges> 
36 
1   -0.452908 
2   -0.359205 
3   -0.35587 
4   -0.263672 
5   -0.153931 
6   -0.150634 
7   -0.153802 
8   -0.168 
9   -0.166651 
10   -0.270524 
11   -0.207362 
12   -0.006788 
13   0.001198 
14   0.007138 
15   -0.140502 
16   -0.181125 
17   0.162354 
18   0.155812 
19   0.152939 
20   0.153073 
21   0.119593 
22   0.148671 
23   0.151086 
24   0.152118 
25   0.120633 
26   0.147384 
27   0.159331 
28   0.158699 
29   0.161628 
30   0.159518 
31   0.174376 
32   0.155976 
33   0.165021 
34   0.149372 
35   0.156331 
36   0.118724 
 
$$$$ 
 
