PCCDB-ID:  32478 
public computational chemistry database (PCCDB) project, http://pccdb.org 
 
 28 28  0  0  1  0  0  0  0  0999 V2000 
    2.1819    1.1912    0.6352 C   0  0  0  0  0  0  0  0  0  0  0  0 
    3.5825    0.2888   -1.2718 C   0  0  0  0  0  0  0  0  0  0  0  0 
    0.9304   -1.4385    3.3929 C   0  0  0  0  0  0  0  0  0  0  0  0 
    0.8733   -3.8530    2.5399 C   0  0  0  0  0  0  0  0  0  0  0  0 
    4.2844   -3.5457    0.5049 C   0  0  0  0  0  0  0  0  0  0  0  0 
    2.5756   -0.0598   -0.1642 C   0  0  0  0  0  0  0  0  0  0  0  0 
    1.4180   -2.4525    2.3862 C   0  0  0  0  0  0  0  0  0  0  0  0 
    3.0910   -2.6298    0.2902 C   0  0  2  0  0  0  0  0  0  0  0  0 
    3.1342   -1.1551    0.7442 C   0  0  2  0  0  0  0  0  0  0  0  0 
    2.2777   -2.1459    1.4191 C   0  0  0  0  0  0  0  0  0  0  0  0 
    1.7761    1.9686   -0.0233 H   0  0  0  0  0  0  0  0  0  0  0  0 
    3.0528    1.6164    1.1513 H   0  0  0  0  0  0  0  0  0  0  0  0 
    1.4239    0.9600    1.3911 H   0  0  0  0  0  0  0  0  0  0  0  0 
    3.1770    1.0478   -1.9516 H   0  0  0  0  0  0  0  0  0  0  0  0 
    3.8424   -0.5947   -1.8658 H   0  0  0  0  0  0  0  0  0  0  0  0 
    4.5116    0.6882   -0.8445 H   0  0  0  0  0  0  0  0  0  0  0  0 
    1.1342   -1.7771    4.4187 H   0  0  0  0  0  0  0  0  0  0  0  0 
   -0.1579   -1.2998    3.3222 H   0  0  0  0  0  0  0  0  0  0  0  0 
    1.4097   -0.4657    3.2542 H   0  0  0  0  0  0  0  0  0  0  0  0 
   -0.2242   -3.8583    2.4767 H   0  0  0  0  0  0  0  0  0  0  0  0 
    1.1300   -4.2730    3.5230 H   0  0  0  0  0  0  0  0  0  0  0  0 
    1.2625   -4.5239    1.7688 H   0  0  0  0  0  0  0  0  0  0  0  0 
    5.0168   -3.4399   -0.3051 H   0  0  0  0  0  0  0  0  0  0  0  0 
    3.9777   -4.5982    0.5443 H   0  0  0  0  0  0  0  0  0  0  0  0 
    4.7867   -3.3131    1.4506 H   0  0  0  0  0  0  0  0  0  0  0  0 
    1.6669   -0.4583   -0.6386 H   0  0  0  0  0  0  0  0  0  0  0  0 
    2.5662   -2.7947   -0.6550 H   0  0  0  0  0  0  0  0  0  0  0  0 
    4.0500   -0.8598    1.2671 H   0  0  0  0  0  0  0  0  0  0  0  0 
  1 12  1  0  0  0  0 
  1 13  1  0  0  0  0 
  2 16  1  0  0  0  0 
  2  6  1  0  0  0  0 
  3 17  1  0  0  0  0 
  4 21  1  0  0  0  0 
  5 24  1  0  0  0  0 
  5 25  1  0  0  0  0 
  6  1  1  0  0  0  0 
  6  9  1  0  0  0  0 
  7  4  1  0  0  0  0 
  7  3  1  0  0  0  0 
  8 27  1  6  0  0  0 
  8  5  1  0  0  0  0 
  8  9  1  0  0  0  0 
  8 10  1  0  0  0  0 
  9 28  1  1  0  0  0 
  9 10  1  0  0  0  0 
 10  7  2  0  0  0  0 
 11  1  1  0  0  0  0 
 14  2  1  0  0  0  0 
 15  2  1  0  0  0  0 
 18  3  1  0  0  0  0 
 19  3  1  0  0  0  0 
 20  4  1  0  0  0  0 
 22  4  1  0  0  0  0 
 23  5  1  0  0  0  0 
 26  6  1  0  0  0  0 
M  END 
>  <HBA> 
0 
 
>  <HBD> 
0 
 
>  <TPSA> 
0.0 
 
>  <cid> 
32478 
 
>  <dipole> 
0.13 
 
>  <excitation_energy_1> 
5.723 
 
>  <excitation_energy_2> 
6.05 
 
>  <excitation_energy_3> 
6.142 
 
>  <excitation_energy_4> 
6.272 
 
>  <homo_energy> 
-6.139 
 
>  <homo_lumo_gap> 
6.852 
 
>  <logP> 
3.245 
 
>  <lumo_energy> 
0.713 
 
>  <melting_point> 
9.99 
 
>  <molecular_refractivity> 
47.6 
 
>  <oscillator_strength_1> 
0.0068 
 
>  <oscillator_strength_2> 
0.1077 
 
>  <oscillator_strength_3> 
0.0053 
 
>  <oscillator_strength_4> 
0.0028 
 
>  <open_babel_can_smiles> 
CC([C@@H]1[C@H](C1=C(C)C)C)C 
 
>  <mulliken_charges> 
28 
1   -0.447003 
2   -0.439318 
3   -0.511213 
4   -0.507471 
5   -0.445486 
6   -0.071841 
7   0.079706 
8   -0.166347 
9   -0.158312 
10   0.090199 
11   0.137861 
12   0.13629 
13   0.150951 
14   0.138208 
15   0.14418 
16   0.137179 
17   0.147011 
18   0.148433 
19   0.161145 
20   0.1478 
21   0.147833 
22   0.157049 
23   0.144204 
24   0.145024 
25   0.145503 
26   0.120796 
27   0.137101 
28   0.130515 
 
>  <lowdin_charges> 
28 
1   -0.44784 
2   -0.446026 
3   -0.436783 
4   -0.436431 
5   -0.43265 
6   -0.111763 
7   -0.007935 
8   -0.155637 
9   -0.155481 
10   -0.06945 
11   0.148175 
12   0.145431 
13   0.152028 
14   0.147952 
15   0.150028 
16   0.145162 
17   0.151293 
18   0.151083 
19   0.158 
20   0.150202 
21   0.151966 
22   0.159137 
23   0.149469 
24   0.148376 
25   0.151841 
26   0.139307 
27   0.15086 
28   0.149686 
 
$$$$ 
 
