PCCDB-ID:  7424 
public computational chemistry database (PCCDB) project, http://pccdb.org 
 
 17 17  0  0  0  0  0  0  0  0999 V2000 
   -0.6430    1.2584    0.0167 C   0  0  0  0  0  0  0  0  0  0  0  0 
   -0.6758   -1.1709    0.0161 C   0  0  0  0  0  0  0  0  0  0  0  0 
    1.4434    0.0152    0.0080 C   0  0  0  0  0  0  0  0  0  0  0  0 
   -1.3526    0.0498    0.0088 C   0  0  0  0  0  0  0  0  0  0  0  0 
    0.7573    1.2298    0.0224 C   0  0  0  0  0  0  0  0  0  0  0  0 
    0.7227   -1.1810    0.0091 C   0  0  0  0  0  0  0  0  0  0  0  0 
   -2.8525    0.0039    0.0136 C   0  0  0  0  0  0  0  0  0  0  0  0 
    1.5135    2.3650    0.0480 O   0  0  0  0  0  0  0  0  0  0  0  0 
    1.4443   -2.3367    0.0034 O   0  0  0  0  0  0  0  0  0  0  0  0 
   -3.4909   -0.9363    0.4224 O   0  0  0  0  0  0  0  0  0  0  0  0 
   -3.4927    1.0994   -0.4814 O   0  0  0  0  0  0  0  0  0  0  0  0 
   -1.1590    2.2143    0.0842 H   0  0  0  0  0  0  0  0  0  0  0  0 
   -1.2514   -2.0917    0.0297 H   0  0  0  0  0  0  0  0  0  0  0  0 
    2.5273    0.0014    0.0096 H   0  0  0  0  0  0  0  0  0  0  0  0 
    0.9307    3.1394    0.0780 H   0  0  0  0  0  0  0  0  0  0  0  0 
    0.8347   -3.0911    0.0221 H   0  0  0  0  0  0  0  0  0  0  0  0 
   -2.8526    1.6752   -0.9307 H   0  0  0  0  0  0  0  0  0  0  0  0 
  1  5  2  0  0  0  0 
  1 12  1  0  0  0  0 
  2 13  1  0  0  0  0 
  3  6  2  0  0  0  0 
  3 14  1  0  0  0  0 
  3  5  1  0  0  0  0 
  4  7  1  0  0  0  0 
  4  2  2  0  0  0  0 
  4  1  1  0  0  0  0 
  5  8  1  0  0  0  0 
  6  2  1  0  0  0  0 
  7 10  2  0  0  0  0 
  8 15  1  0  0  0  0 
  9  6  1  0  0  0  0 
  9 16  1  0  0  0  0 
 11  7  1  0  0  0  0 
 17 11  1  0  0  0  0 
M  END 
>  <HBA> 
4 
 
>  <HBD> 
3 
 
>  <TPSA> 
77.76 
 
>  <cid> 
7424 
 
>  <dipole> 
2.96 
 
>  <excitation_energy_1> 
4.352 
 
>  <excitation_energy_2> 
4.752 
 
>  <excitation_energy_3> 
5.023 
 
>  <excitation_energy_4> 
5.251 
 
>  <homo_energy> 
-6.446 
 
>  <homo_lumo_gap> 
5.072 
 
>  <logP> 
0.796 
 
>  <lumo_energy> 
-1.374 
 
>  <melting_point> 
176.59 
 
>  <molecular_refractivity> 
37.45 
 
>  <oscillator_strength_1> 
0.0433 
 
>  <oscillator_strength_2> 
0.0242 
 
>  <oscillator_strength_3> 
0.0705 
 
>  <oscillator_strength_4> 
0.007 
 
>  <open_babel_can_smiles> 
Oc1cc(O)cc(c1)C(=O)O 
 
>  <mulliken_charges> 
17 
1   -0.280521 
2   -0.233854 
3   -0.192427 
4   0.05026 
5   0.361107 
6   0.361349 
7   0.551116 
8   -0.638353 
9   -0.638548 
10   -0.444955 
11   -0.573787 
12   0.123302 
13   0.15594 
14   0.161661 
15   0.411708 
16   0.415946 
17   0.410055 
 
>  <lowdin_charges> 
17 
1   -0.249135 
2   -0.209726 
3   -0.198404 
4   -0.035346 
5   0.116537 
6   0.116755 
7   0.19774 
8   -0.369033 
9   -0.367272 
10   -0.238362 
11   -0.358121 
12   0.153519 
13   0.175803 
14   0.181006 
15   0.361247 
16   0.364248 
17   0.358544 
 
$$$$ 
 
