PCCDB-ID:  23377 
public computational chemistry database (PCCDB) project, http://pccdb.org 
 
 41 40  0  0  0  0  0  0  0  0999 V2000 
    2.3422    1.4467    3.7750 C   0  0  0  0  0  0  0  0  0  0  0  0 
   10.2553   -4.6275    0.7781 C   0  0  0  0  0  0  0  0  0  0  0  0 
    3.1130    2.6616    3.2450 C   0  0  0  0  0  0  0  0  0  0  0  0 
   10.1247   -4.5918    2.3042 C   0  0  0  0  0  0  0  0  0  0  0  0 
    4.5537    2.3598    2.8003 C   0  0  0  0  0  0  0  0  0  0  0  0 
    9.7377   -3.2101    2.8462 C   0  0  0  0  0  0  0  0  0  0  0  0 
    5.4943    1.9282    3.9343 C   0  0  0  0  0  0  0  0  0  0  0  0 
    9.6069   -3.1748    4.3764 C   0  0  0  0  0  0  0  0  0  0  0  0 
    6.9318    1.6922    3.4571 C   0  0  0  0  0  0  0  0  0  0  0  0 
    9.2940   -1.7907    4.9668 C   0  0  0  0  0  0  0  0  0  0  0  0 
    7.9057    1.2975    4.5788 C   0  0  0  0  0  0  0  0  0  0  0  0 
    7.9022   -1.2611    4.5820 C   0  0  0  0  0  0  0  0  0  0  0  0 
    7.1090    0.0871    6.4640 N   0  0  0  0  0  0  0  0  0  0  0  0 
    7.6004    0.0221    5.2188 N   0  0  0  0  0  0  0  0  0  0  0  0 
    6.9057   -1.0005    7.0024 O   0  0  0  0  0  0  0  0  0  0  0  0 
    1.3130    1.7191    4.0349 H   0  0  0  0  0  0  0  0  0  0  0  0 
    2.8064    1.0283    4.6746 H   0  0  0  0  0  0  0  0  0  0  0  0 
    2.2952    0.6493    3.0224 H   0  0  0  0  0  0  0  0  0  0  0  0 
   10.5323   -5.6266    0.4232 H   0  0  0  0  0  0  0  0  0  0  0  0 
   11.0228   -3.9256    0.4288 H   0  0  0  0  0  0  0  0  0  0  0  0 
    9.3109   -4.3523    0.2921 H   0  0  0  0  0  0  0  0  0  0  0  0 
    3.1354    3.4448    4.0165 H   0  0  0  0  0  0  0  0  0  0  0  0 
    2.5657    3.0892    2.3943 H   0  0  0  0  0  0  0  0  0  0  0  0 
   11.0744   -4.9070    2.7595 H   0  0  0  0  0  0  0  0  0  0  0  0 
    9.3752   -5.3283    2.6263 H   0  0  0  0  0  0  0  0  0  0  0  0 
    4.9695    3.2565    2.3181 H   0  0  0  0  0  0  0  0  0  0  0  0 
    4.5375    1.5799    2.0235 H   0  0  0  0  0  0  0  0  0  0  0  0 
    8.7923   -2.9004    2.3775 H   0  0  0  0  0  0  0  0  0  0  0  0 
   10.4902   -2.4719    2.5293 H   0  0  0  0  0  0  0  0  0  0  0  0 
    5.1161    1.0163    4.4121 H   0  0  0  0  0  0  0  0  0  0  0  0 
    5.4978    2.7000    4.7183 H   0  0  0  0  0  0  0  0  0  0  0  0 
   10.5455   -3.5356    4.8185 H   0  0  0  0  0  0  0  0  0  0  0  0 
    8.8309   -3.8865    4.6940 H   0  0  0  0  0  0  0  0  0  0  0  0 
    7.3222    2.6102    2.9948 H   0  0  0  0  0  0  0  0  0  0  0  0 
    6.9444    0.9293    2.6656 H   0  0  0  0  0  0  0  0  0  0  0  0 
   10.0606   -1.0727    4.6429 H   0  0  0  0  0  0  0  0  0  0  0  0 
    9.3418   -1.8388    6.0598 H   0  0  0  0  0  0  0  0  0  0  0  0 
    7.8851    2.0462    5.3767 H   0  0  0  0  0  0  0  0  0  0  0  0 
    8.9308    1.2516    4.1893 H   0  0  0  0  0  0  0  0  0  0  0  0 
    7.1337   -1.9672    4.9094 H   0  0  0  0  0  0  0  0  0  0  0  0 
    7.8107   -1.1166    3.5021 H   0  0  0  0  0  0  0  0  0  0  0  0 
  1 16  1  0  0  0  0 
  1 17  1  0  0  0  0 
  2  4  1  0  0  0  0 
  3  1  1  0  0  0  0 
  3 22  1  0  0  0  0 
  4 25  1  0  0  0  0 
  4 24  1  0  0  0  0 
  4  6  1  0  0  0  0 
  5  3  1  0  0  0  0 
  5  7  1  0  0  0  0 
  6  8  1  0  0  0  0 
  7 30  1  0  0  0  0 
  7 31  1  0  0  0  0 
  8 33  1  0  0  0  0 
  8 32  1  0  0  0  0 
  8 10  1  0  0  0  0 
  9  7  1  0  0  0  0 
  9 11  1  0  0  0  0 
 10 37  1  0  0  0  0 
 11 14  1  0  0  0  0 
 11 38  1  0  0  0  0 
 12 40  1  0  0  0  0 
 12 10  1  0  0  0  0 
 12 14  1  0  0  0  0 
 13 15  2  0  0  0  0 
 14 13  1  0  0  0  0 
 18  1  1  0  0  0  0 
 19  2  1  0  0  0  0 
 20  2  1  0  0  0  0 
 21  2  1  0  0  0  0 
 23  3  1  0  0  0  0 
 26  5  1  0  0  0  0 
 27  5  1  0  0  0  0 
 28  6  1  0  0  0  0 
 29  6  1  0  0  0  0 
 34  9  1  0  0  0  0 
 35  9  1  0  0  0  0 
 36 10  1  0  0  0  0 
 39 11  1  0  0  0  0 
 41 12  1  0  0  0  0 
M  END 
>  <HBA> 
3 
 
>  <HBD> 
0 
 
>  <TPSA> 
32.67 
 
>  <cid> 
23377 
 
>  <dipole> 
3.94 
 
>  <excitation_energy_1> 
3.385 
 
>  <excitation_energy_2> 
5.544 
 
>  <excitation_energy_3> 
5.705 
 
>  <excitation_energy_4> 
5.837 
 
>  <homo_energy> 
-5.891 
 
>  <homo_lumo_gap> 
5.227 
 
>  <logP> 
4.13 
 
>  <lumo_energy> 
-0.664 
 
>  <melting_point> 
-8.86 
 
>  <molecular_refractivity> 
67.43 
 
>  <oscillator_strength_1> 
0.0012 
 
>  <oscillator_strength_2> 
0.0063 
 
>  <oscillator_strength_3> 
0.1465 
 
>  <oscillator_strength_4> 
0.0012 
 
>  <open_babel_can_smiles> 
CCCCCCN(N=O)CCCCCC 
 
>  <mulliken_charges> 
41 
1   -0.445527 
2   -0.442537 
3   -0.249375 
4   -0.247475 
5   -0.250191 
6   -0.251706 
7   -0.25463 
8   -0.261403 
9   -0.267529 
10   -0.263758 
11   -0.146912 
12   -0.152858 
13   0.146726 
14   -0.216037 
15   -0.390528 
16   0.143756 
17   0.153123 
18   0.13947 
19   0.144453 
20   0.141448 
21   0.141 
22   0.131997 
23   0.131229 
24   0.132736 
25   0.133682 
26   0.126427 
27   0.125422 
28   0.128874 
29   0.126302 
30   0.150714 
31   0.135091 
32   0.136422 
33   0.138061 
34   0.139189 
35   0.137678 
36   0.131086 
37   0.16553 
38   0.17379 
39   0.151543 
40   0.180721 
41   0.153996 
 
>  <lowdin_charges> 
41 
1   -0.447797 
2   -0.445299 
3   -0.274108 
4   -0.272551 
5   -0.276255 
6   -0.279044 
7   -0.280188 
8   -0.276317 
9   -0.284648 
10   -0.280469 
11   -0.202156 
12   -0.218871 
13   0.048448 
14   -0.040061 
15   -0.282868 
16   0.149881 
17   0.151032 
18   0.145893 
19   0.15028 
20   0.147239 
21   0.146074 
22   0.140348 
23   0.143021 
24   0.140029 
25   0.141576 
26   0.13959 
27   0.136994 
28   0.136319 
29   0.137666 
30   0.148383 
31   0.142918 
32   0.146229 
33   0.144314 
34   0.148319 
35   0.142068 
36   0.140177 
37   0.158061 
38   0.166203 
39   0.148891 
40   0.169885 
41   0.150796 
 
$$$$ 
 
