PCCDB-ID:  18821 
public computational chemistry database (PCCDB) project, http://pccdb.org 
 
 26 26  0  0  0  0  0  0  0  0999 V2000 
    2.6802   -1.1078   -0.1897 C   0  0  0  0  0  0  0  0  0  0  0  0 
    1.6742    1.5279    2.1785 C   0  0  0  0  0  0  0  0  0  0  0  0 
    2.1770    0.2669   -0.6476 C   0  0  0  0  0  0  0  0  0  0  0  0 
    3.0179    1.5432    1.4369 C   0  0  0  0  0  0  0  0  0  0  0  0 
    2.2754    2.7841   -0.6481 C   0  0  0  0  0  0  0  0  0  0  0  0 
    4.3924    1.5283   -0.6565 C   0  0  0  0  0  0  0  0  0  0  0  0 
    3.7612    2.8807   -2.4455 C   0  0  0  0  0  0  0  0  0  0  0  0 
    2.9469    1.4993   -0.1074 C   0  0  0  0  0  0  0  0  0  0  0  0 
    2.4082    2.8929   -2.0654 O   0  0  0  0  0  0  0  0  0  0  0  0 
    4.4213    1.6966   -2.0727 O   0  0  0  0  0  0  0  0  0  0  0  0 
    2.0747   -1.8993   -0.6456 H   0  0  0  0  0  0  0  0  0  0  0  0 
    2.6170   -1.2348    0.8972 H   0  0  0  0  0  0  0  0  0  0  0  0 
    3.7194   -1.2878   -0.4873 H   0  0  0  0  0  0  0  0  0  0  0  0 
    1.8388    1.5758    3.2607 H   0  0  0  0  0  0  0  0  0  0  0  0 
    1.1026    0.6163    1.9739 H   0  0  0  0  0  0  0  0  0  0  0  0 
    1.0444    2.3829    1.9076 H   0  0  0  0  0  0  0  0  0  0  0  0 
    1.1202    0.3688   -0.3667 H   0  0  0  0  0  0  0  0  0  0  0  0 
    2.2030    0.3140   -1.7407 H   0  0  0  0  0  0  0  0  0  0  0  0 
    3.6253    0.6971    1.7856 H   0  0  0  0  0  0  0  0  0  0  0  0 
    3.5719    2.4461    1.7318 H   0  0  0  0  0  0  0  0  0  0  0  0 
    2.7274    3.6706   -0.1680 H   0  0  0  0  0  0  0  0  0  0  0  0 
    1.2006    2.7980   -0.4468 H   0  0  0  0  0  0  0  0  0  0  0  0 
    4.9266    0.5973   -0.4482 H   0  0  0  0  0  0  0  0  0  0  0  0 
    4.9517    2.3517   -0.1778 H   0  0  0  0  0  0  0  0  0  0  0  0 
    4.2807    3.7513   -1.9986 H   0  0  0  0  0  0  0  0  0  0  0  0 
    3.7902    2.9371   -3.5349 H   0  0  0  0  0  0  0  0  0  0  0  0 
  1 12  1  0  0  0  0 
  2 14  1  0  0  0  0 
  3 17  1  0  0  0  0 
  3  1  1  0  0  0  0 
  3  8  1  0  0  0  0 
  4 20  1  0  0  0  0 
  4 19  1  0  0  0  0 
  4  2  1  0  0  0  0 
  5 22  1  0  0  0  0 
  5 21  1  0  0  0  0 
  5  8  1  0  0  0  0 
  6 23  1  0  0  0  0 
  6 24  1  0  0  0  0 
  6  8  1  0  0  0  0 
  7 10  1  0  0  0  0 
  7  9  1  0  0  0  0 
  7 25  1  0  0  0  0 
  8  4  1  0  0  0  0 
  9  5  1  0  0  0  0 
 10  6  1  0  0  0  0 
 11  1  1  0  0  0  0 
 13  1  1  0  0  0  0 
 15  2  1  0  0  0  0 
 16  2  1  0  0  0  0 
 18  3  1  0  0  0  0 
 26  7  1  0  0  0  0 
M  END 
>  <HBA> 
2 
 
>  <HBD> 
0 
 
>  <TPSA> 
18.46 
 
>  <cid> 
18821 
 
>  <dipole> 
1.87 
 
>  <excitation_energy_1> 
6.509 
 
>  <excitation_energy_2> 
6.819 
 
>  <excitation_energy_3> 
6.868 
 
>  <excitation_energy_4> 
6.919 
 
>  <homo_energy> 
-6.901 
 
>  <homo_lumo_gap> 
8.882 
 
>  <logP> 
1.797 
 
>  <lumo_energy> 
1.981 
 
>  <melting_point> 
-4.53 
 
>  <molecular_refractivity> 
40.37 
 
>  <oscillator_strength_1> 
0.0032 
 
>  <oscillator_strength_2> 
0.0285 
 
>  <oscillator_strength_3> 
0.0017 
 
>  <oscillator_strength_4> 
0.012 
 
>  <open_babel_can_smiles> 
CCC1(CC)COCOC1 
 
>  <mulliken_charges> 
26 
1   -0.460721 
2   -0.456742 
3   -0.258357 
4   -0.272806 
5   -0.050214 
6   -0.052834 
7   0.178929 
8   0.057307 
9   -0.465547 
10   -0.464846 
11   0.147125 
12   0.142935 
13   0.148446 
14   0.147284 
15   0.154008 
16   0.147856 
17   0.128686 
18   0.1629 
19   0.139125 
20   0.129482 
21   0.117668 
22   0.149266 
23   0.150347 
24   0.118178 
25   0.107497 
26   0.155027 
 
>  <lowdin_charges> 
26 
1   -0.447444 
2   -0.447142 
3   -0.27567 
4   -0.277645 
5   -0.136595 
6   -0.141129 
7   -0.022903 
8   -0.028131 
9   -0.264217 
10   -0.264289 
11   0.154832 
12   0.143275 
13   0.1474 
14   0.151745 
15   0.151993 
16   0.149167 
17   0.139483 
18   0.156328 
19   0.146226 
20   0.141242 
21   0.127782 
22   0.149839 
23   0.151909 
24   0.128814 
25   0.112515 
26   0.152616 
 
$$$$ 
 
