PCCDB-ID:  58283 
public computational chemistry database (PCCDB) project, http://pccdb.org 
 
 36 37  0  0  0  0  0  0  0  0999 V2000 
    4.6328    3.4398   -1.2998 C   0  0  0  0  0  0  0  0  0  0  0  0 
    4.0531    1.9235    0.5706 C   0  0  0  0  0  0  0  0  0  0  0  0 
    4.7164   -0.7328   -7.0984 C   0  0  0  0  0  0  0  0  0  0  0  0 
   10.6689    0.2312   -3.3861 C   0  0  0  0  0  0  0  0  0  0  0  0 
    5.1274   -1.7980   -6.2953 C   0  0  0  0  0  0  0  0  0  0  0  0 
    4.8150    0.5715   -6.6109 C   0  0  0  0  0  0  0  0  0  0  0  0 
   10.0467   -0.9780   -3.0748 C   0  0  0  0  0  0  0  0  0  0  0  0 
    9.8887    1.3701   -3.5999 C   0  0  0  0  0  0  0  0  0  0  0  0 
    5.6351   -1.5555   -5.0184 C   0  0  0  0  0  0  0  0  0  0  0  0 
    5.3233    0.8109   -5.3334 C   0  0  0  0  0  0  0  0  0  0  0  0 
    8.6550   -1.0448   -2.9827 C   0  0  0  0  0  0  0  0  0  0  0  0 
    8.4988    1.3000   -3.5087 C   0  0  0  0  0  0  0  0  0  0  0  0 
    5.1156    1.0570   -1.4503 C   0  0  0  0  0  0  0  0  0  0  0  0 
    5.7433   -0.2504   -4.5235 C   0  0  0  0  0  0  0  0  0  0  0  0 
    7.8655    0.0890   -3.2031 C   0  0  0  0  0  0  0  0  0  0  0  0 
    6.3370   -0.0072   -3.1300 C   0  0  0  0  0  0  0  0  0  0  0  0 
    5.7832    1.1990   -2.5312 N   0  0  0  0  0  0  0  0  0  0  0  0 
    4.4720    2.0821   -0.8090 N   0  0  0  0  0  0  0  0  0  0  0  0 
    3.7792    4.0439   -0.9748 H   0  0  0  0  0  0  0  0  0  0  0  0 
    4.6752    3.4206   -2.3894 H   0  0  0  0  0  0  0  0  0  0  0  0 
    5.5575    3.9070   -0.9277 H   0  0  0  0  0  0  0  0  0  0  0  0 
    3.0963    2.4331    0.7353 H   0  0  0  0  0  0  0  0  0  0  0  0 
    4.7864    2.3354    1.2820 H   0  0  0  0  0  0  0  0  0  0  0  0 
    3.9176    0.8617    0.7958 H   0  0  0  0  0  0  0  0  0  0  0  0 
    4.3190   -0.9184   -8.0929 H   0  0  0  0  0  0  0  0  0  0  0  0 
   11.7521    0.2877   -3.4564 H   0  0  0  0  0  0  0  0  0  0  0  0 
    5.0494   -2.8191   -6.6604 H   0  0  0  0  0  0  0  0  0  0  0  0 
    4.4920    1.4079   -7.2262 H   0  0  0  0  0  0  0  0  0  0  0  0 
   10.6429   -1.8699   -2.8985 H   0  0  0  0  0  0  0  0  0  0  0  0 
   10.3651    2.3185   -3.8365 H   0  0  0  0  0  0  0  0  0  0  0  0 
    5.9499   -2.3924   -4.3983 H   0  0  0  0  0  0  0  0  0  0  0  0 
    5.3845    1.8231   -4.9477 H   0  0  0  0  0  0  0  0  0  0  0  0 
    8.1784   -1.9904   -2.7318 H   0  0  0  0  0  0  0  0  0  0  0  0 
    7.8934    2.1880   -3.6578 H   0  0  0  0  0  0  0  0  0  0  0  0 
    4.9767    0.0844   -0.9548 H   0  0  0  0  0  0  0  0  0  0  0  0 
    6.1018   -0.9004   -2.5228 H   0  0  0  0  0  0  0  0  0  0  0  0 
  1 19  1  0  0  0  0 
  1 21  1  0  0  0  0 
  1 18  1  0  0  0  0 
  2 22  1  0  0  0  0 
  2 24  1  0  0  0  0 
  2 23  1  0  0  0  0 
  3  6  2  0  0  0  0 
  3  5  1  0  0  0  0 
  4  7  2  0  0  0  0 
  5  9  2  0  0  0  0 
  6 10  1  0  0  0  0 
  7 11  1  0  0  0  0 
  7 29  1  0  0  0  0 
  8 12  2  0  0  0  0 
  8  4  1  0  0  0  0 
  9 14  1  0  0  0  0 
  9 31  1  0  0  0  0 
 10 32  1  0  0  0  0 
 10 14  2  0  0  0  0 
 11 33  1  0  0  0  0 
 12 15  1  0  0  0  0 
 13 35  1  0  0  0  0 
 13 18  1  0  0  0  0 
 14 16  1  0  0  0  0 
 15 16  1  0  0  0  0 
 15 11  2  0  0  0  0 
 16 17  1  0  0  0  0 
 16 36  1  0  0  0  0 
 17 13  2  0  0  0  0 
 18  2  1  0  0  0  0 
 20  1  1  0  0  0  0 
 25  3  1  0  0  0  0 
 26  4  1  0  0  0  0 
 27  5  1  0  0  0  0 
 28  6  1  0  0  0  0 
 30  8  1  0  0  0  0 
 34 12  1  0  0  0  0 
M  END 
>  <HBA> 
2 
 
>  <HBD> 
0 
 
>  <TPSA> 
15.6 
 
>  <cid> 
58283 
 
>  <dipole> 
2.99 
 
>  <excitation_energy_1> 
4.883 
 
>  <excitation_energy_2> 
5.023 
 
>  <excitation_energy_3> 
5.157 
 
>  <excitation_energy_4> 
5.187 
 
>  <homo_energy> 
-5.739 
 
>  <homo_lumo_gap> 
5.753 
 
>  <logP> 
3.366 
 
>  <lumo_energy> 
0.014 
 
>  <melting_point> 
56.05 
 
>  <molecular_refractivity> 
76.9 
 
>  <oscillator_strength_1> 
0.0067 
 
>  <oscillator_strength_2> 
0.0023 
 
>  <oscillator_strength_3> 
0.0342 
 
>  <oscillator_strength_4> 
0.0109 
 
>  <open_babel_can_smiles> 
CN(/C=N/C(c1ccccc1)c1ccccc1)C 
 
>  <mulliken_charges> 
36 
1   -0.306099 
2   -0.309671 
3   -0.129268 
4   -0.129771 
5   -0.13051 
6   -0.13131 
7   -0.130234 
8   -0.131098 
9   -0.177972 
10   -0.173196 
11   -0.184194 
12   -0.167074 
13   0.268474 
14   0.182203 
15   0.188735 
16   -0.172343 
17   -0.435434 
18   -0.373167 
19   0.14713 
20   0.1905 
21   0.152254 
22   0.159581 
23   0.153345 
24   0.162557 
25   0.122961 
26   0.123133 
27   0.123518 
28   0.123302 
29   0.123388 
30   0.123734 
31   0.115822 
32   0.14108 
33   0.115341 
34   0.13995 
35   0.115681 
36   0.108651 
 
>  <lowdin_charges> 
36 
1   -0.350203 
2   -0.346208 
3   -0.161656 
4   -0.160361 
5   -0.156332 
6   -0.158092 
7   -0.158594 
8   -0.156807 
9   -0.169824 
10   -0.160347 
11   -0.171439 
12   -0.157245 
13   -0.033482 
14   -0.001112 
15   -0.000625 
16   -0.053828 
17   -0.238559 
18   -0.102277 
19   0.151848 
20   0.172901 
21   0.146315 
22   0.152688 
23   0.144308 
24   0.158147 
25   0.153802 
26   0.152579 
27   0.153818 
28   0.155362 
29   0.155216 
30   0.154669 
31   0.151641 
32   0.162546 
33   0.149949 
34   0.164774 
35   0.127522 
36   0.12891 
 
$$$$ 
 
