PCCDB-ID:  7832 
public computational chemistry database (PCCDB) project, http://pccdb.org 
 
 21 22  0  0  1  0  0  0  0  0999 V2000 
    1.4798   -0.9869    0.0718 C   0  0  0  0  0  0  0  0  0  0  0  0 
    1.9196    0.2643    0.2151 C   0  0  0  0  0  0  0  0  0  0  0  0 
    3.0383    2.2356   -0.9440 C   0  0  0  0  0  0  0  0  0  0  0  0 
    2.8186    2.1914   -2.5062 C   0  0  0  0  0  0  0  0  0  0  0  0 
    4.2244   -0.1724   -0.9057 C   0  0  0  0  0  0  0  0  0  0  0  0 
    3.2605    0.8565   -0.1782 C   0  0  2  0  0  0  0  0  0  0  0  0 
    3.9658    1.2653   -2.8452 C   0  0  1  0  0  0  0  0  0  0  0  0 
    3.6876   -0.0588   -2.3144 C   0  0  1  0  0  0  0  0  0  0  0  0 
    4.2103    0.0943   -3.6589 O   0  0  0  0  0  0  0  0  0  0  0  0 
    0.4928   -1.2742    0.4240 H   0  0  0  0  0  0  0  0  0  0  0  0 
    2.0673   -1.7745   -0.3918 H   0  0  0  0  0  0  0  0  0  0  0  0 
    1.2519    0.9837    0.6940 H   0  0  0  0  0  0  0  0  0  0  0  0 
    2.2021    2.7595   -0.4657 H   0  0  0  0  0  0  0  0  0  0  0  0 
    3.9254    2.8562   -0.7636 H   0  0  0  0  0  0  0  0  0  0  0  0 
    2.8788    3.2067   -2.9178 H   0  0  0  0  0  0  0  0  0  0  0  0 
    1.8439    1.7673   -2.7661 H   0  0  0  0  0  0  0  0  0  0  0  0 
    4.1530   -1.1589   -0.4349 H   0  0  0  0  0  0  0  0  0  0  0  0 
    5.2635    0.1620   -0.8298 H   0  0  0  0  0  0  0  0  0  0  0  0 
    3.7459    1.1419    0.7676 H   0  0  0  0  0  0  0  0  0  0  0  0 
    4.9241    1.6985   -2.5472 H   0  0  0  0  0  0  0  0  0  0  0  0 
    2.6444   -0.3681   -2.3733 H   0  0  0  0  0  0  0  0  0  0  0  0 
  1  2  2  0  0  0  0 
  1 10  1  0  0  0  0 
  2 12  1  0  0  0  0 
  3 14  1  0  0  0  0 
  3 13  1  0  0  0  0 
  3  6  1  0  0  0  0 
  4  3  1  0  0  0  0 
  5 18  1  0  0  0  0 
  5 17  1  0  0  0  0 
  5  6  1  0  0  0  0 
  6  2  1  0  0  0  0 
  6 19  1  1  0  0  0 
  7 20  1  1  0  0  0 
  7  4  1  0  0  0  0 
  7  8  1  0  0  0  0 
  8 21  1  6  0  0  0 
  8  5  1  0  0  0  0 
  9  7  1  0  0  0  0 
  9  8  1  0  0  0  0 
 11  1  1  0  0  0  0 
 15  4  1  0  0  0  0 
 16  4  1  0  0  0  0 
M  END 
>  <HBA> 
1 
 
>  <HBD> 
0 
 
>  <TPSA> 
12.53 
 
>  <cid> 
7832 
 
>  <dipole> 
2.81 
 
>  <excitation_energy_1> 
5.996 
 
>  <excitation_energy_2> 
6.185 
 
>  <excitation_energy_3> 
6.419 
 
>  <excitation_energy_4> 
6.529 
 
>  <homo_energy> 
-6.852 
 
>  <homo_lumo_gap> 
7.214 
 
>  <logP> 
1.74 
 
>  <lumo_energy> 
0.362 
 
>  <melting_point> 
-12.28 
 
>  <molecular_refractivity> 
36.95 
 
>  <oscillator_strength_1> 
0.004 
 
>  <oscillator_strength_2> 
0.0389 
 
>  <oscillator_strength_3> 
0.0139 
 
>  <oscillator_strength_4> 
0.0045 
 
>  <open_babel_can_smiles> 
C=C[C@@H]1CC[C@H]2[C@H](C1)O2 
 
>  <mulliken_charges> 
21 
1   -0.346721 
2   -0.056019 
3   -0.299387 
4   -0.280855 
5   -0.305982 
6   -0.133691 
7   0.088685 
8   0.083887 
9   -0.462617 
10   0.142126 
11   0.144742 
12   0.125991 
13   0.144877 
14   0.142888 
15   0.139112 
16   0.153939 
17   0.145747 
18   0.147024 
19   0.148583 
20   0.130122 
21   0.14755 
 
>  <lowdin_charges> 
21 
1   -0.349915 
2   -0.152728 
3   -0.277922 
4   -0.278576 
5   -0.279574 
6   -0.124349 
7   -0.045726 
8   -0.042248 
9   -0.268283 
10   0.161119 
11   0.159039 
12   0.151976 
13   0.152285 
14   0.146667 
15   0.144875 
16   0.154736 
17   0.148198 
18   0.153292 
19   0.157863 
20   0.140812 
21   0.148458 
 
$$$$ 
 
