PCCDB-ID:  17633 
public computational chemistry database (PCCDB) project, http://pccdb.org 
 
 15 14  0  0  0  0  0  0  0  0999 V2000 
    0.8478   -0.4810    0.0183 C   0  0  0  0  0  0  0  0  0  0  0  0 
    2.3357   -0.1773   -0.1913 C   0  0  0  0  0  0  0  0  0  0  0  0 
    3.0176    0.1888    1.1171 C   0  0  0  0  0  0  0  0  0  0  0  0 
    5.2340    0.8021    1.8065 C   0  0  0  0  0  0  0  0  0  0  0  0 
    4.4115    0.4645    0.8142 O   0  0  0  0  0  0  0  0  0  0  0  0 
    4.8690    0.9670    3.4042 S   0  0  0  0  0  0  0  0  0  0  0  0 
    6.8823    1.0800    1.2091 S   0  0  0  0  0  0  0  0  0  0  0  0 
    0.3699   -0.7428   -0.9310 H   0  0  0  0  0  0  0  0  0  0  0  0 
    0.3166    0.3844    0.4316 H   0  0  0  0  0  0  0  0  0  0  0  0 
    0.7035   -1.3218    0.7070 H   0  0  0  0  0  0  0  0  0  0  0  0 
    2.4561    0.6500   -0.9013 H   0  0  0  0  0  0  0  0  0  0  0  0 
    2.8411   -1.0475   -0.6276 H   0  0  0  0  0  0  0  0  0  0  0  0 
    2.9784   -0.6237    1.8497 H   0  0  0  0  0  0  0  0  0  0  0  0 
    2.5819    1.0809    1.5786 H   0  0  0  0  0  0  0  0  0  0  0  0 
    6.6299    0.8274   -0.0962 H   0  0  0  0  0  0  0  0  0  0  0  0 
  1  9  1  0  0  0  0 
  1 10  1  0  0  0  0 
  2  1  1  0  0  0  0 
  2  3  1  0  0  0  0 
  3 14  1  0  0  0  0 
  3 13  1  0  0  0  0 
  4  6  2  0  0  0  0 
  5  3  1  0  0  0  0 
  5  4  1  0  0  0  0 
  7  4  1  0  0  0  0 
  8  1  1  0  0  0  0 
 11  2  1  0  0  0  0 
 12  2  1  0  0  0  0 
 15  7  1  0  0  0  0 
M  END 
>  <HBA> 
3 
 
>  <HBD> 
1 
 
>  <TPSA> 
80.12 
 
>  <cid> 
17633 
 
>  <dipole> 
3.93 
 
>  <excitation_energy_1> 
3.539 
 
>  <excitation_energy_2> 
4.919 
 
>  <excitation_energy_3> 
5.389 
 
>  <excitation_energy_4> 
5.533 
 
>  <homo_energy> 
-6.327 
 
>  <homo_lumo_gap> 
4.977 
 
>  <logP> 
1.628 
 
>  <lumo_energy> 
-1.35 
 
>  <melting_point> 
16.44 
 
>  <molecular_refractivity> 
38.15 
 
>  <oscillator_strength_1> 
0.0002 
 
>  <oscillator_strength_2> 
0.1387 
 
>  <oscillator_strength_3> 
0.0084 
 
>  <oscillator_strength_4> 
0.0 
 
>  <open_babel_can_smiles> 
CCCOC(=S)S 
 
>  <mulliken_charges> 
15 
1   -0.454862 
2   -0.275808 
3   -0.041577 
4   0.063731 
5   -0.407112 
6   -0.17108 
7   0.049357 
8   0.158332 
9   0.153481 
10   0.153485 
11   0.15446 
12   0.1544 
13   0.176932 
14   0.176659 
15   0.109602 
 
>  <lowdin_charges> 
15 
1   -0.445083 
2   -0.281575 
3   -0.123355 
4   -0.117516 
5   -0.169494 
6   -0.138102 
7   0.053913 
8   0.159303 
9   0.1535 
10   0.153227 
11   0.153185 
12   0.153341 
13   0.162528 
14   0.16258 
15   0.123549 
 
$$$$ 
 
