PCCDB-ID:  24404 
public computational chemistry database (PCCDB) project, http://pccdb.org 
 
  4  3  0  0  0  0  0  0  0  0999 V2000 
    0.8759    0.0051    0.0847 P   0  0  0  0  0  0  0  0  0  0  0  0 
    2.2615    0.0469   -0.2423 H   0  0  0  0  0  0  0  0  0  0  0  0 
    0.5695   -0.9050   -0.9673 H   0  0  0  0  0  0  0  0  0  0  0  0 
    0.5695    1.1506   -0.7041 H   0  0  0  0  0  0  0  0  0  0  0  0 
  2  1  1  0  0  0  0 
  3  1  1  0  0  0  0 
  4  1  1  0  0  0  0 
M  END 
>  <HBA> 
0 
 
>  <HBD> 
1 
 
>  <TPSA> 
13.59 
 
>  <cid> 
24404 
 
>  <dipole> 
0.96 
 
>  <excitation_energy_1> 
6.464 
 
>  <excitation_energy_2> 
7.56 
 
>  <excitation_energy_3> 
7.561 
 
>  <excitation_energy_4> 
8.032 
 
>  <homo_energy> 
-7.502 
 
>  <homo_lumo_gap> 
8.373 
 
>  <logP> 
0.058 
 
>  <lumo_energy> 
0.871 
 
>  <melting_point> 
0.0 
 
>  <molecular_refractivity> 
11.11 
 
>  <oscillator_strength_1> 
0.1659 
 
>  <oscillator_strength_2> 
0.0706 
 
>  <oscillator_strength_3> 
0.0706 
 
>  <oscillator_strength_4> 
0.0466 
 
>  <open_babel_can_smiles> 
P 
 
>  <mulliken_charges> 
4 
1   -0.09163 
2   0.030535 
3   0.030529 
4   0.030565 
 
>  <lowdin_charges> 
4 
1   -0.141531 
2   0.045016 
3   0.048378 
4   0.048137 
 
$$$$ 
 
