PCCDB-ID:  72700 
public computational chemistry database (PCCDB) project, http://pccdb.org 
 
 24 24  0  0  0  0  0  0  0  0999 V2000 
   -1.0590    1.1236    0.0917 C   0  0  0  0  0  0  0  0  0  0  0  0 
   -1.5062   -0.1950    0.0512 C   0  0  0  0  0  0  0  0  0  0  0  0 
    0.3051    1.4085    0.1427 C   0  0  0  0  0  0  0  0  0  0  0  0 
    0.7852   -0.9666    0.1166 C   0  0  0  0  0  0  0  0  0  0  0  0 
   -0.5864   -1.2599    0.0581 C   0  0  0  0  0  0  0  0  0  0  0  0 
    1.2436    0.3611    0.1575 C   0  0  0  0  0  0  0  0  0  0  0  0 
   -1.0882   -2.6609    0.0536 C   0  0  0  0  0  0  0  0  0  0  0  0 
    2.7053    0.6258    0.2626 C   0  0  0  0  0  0  0  0  0  0  0  0 
    0.5622   -3.5956   -1.2670 N   0  0  0  0  0  0  0  0  0  0  0  0 
    2.7763    2.4992   -1.0898 N   0  0  0  0  0  0  0  0  0  0  0  0 
   -0.6012   -3.6962   -0.5138 N   0  0  0  0  0  0  0  0  0  0  0  0 
    3.3960    1.5585   -0.2709 N   0  0  0  0  0  0  0  0  0  0  0  0 
   -2.2855   -2.8657    0.7070 O   0  0  0  0  0  0  0  0  0  0  0  0 
    3.4307   -0.2923    0.9882 O   0  0  0  0  0  0  0  0  0  0  0  0 
   -1.7785    1.9378    0.0881 H   0  0  0  0  0  0  0  0  0  0  0  0 
   -2.5692   -0.4105   -0.0015 H   0  0  0  0  0  0  0  0  0  0  0  0 
    0.6488    2.4365    0.1850 H   0  0  0  0  0  0  0  0  0  0  0  0 
    1.5037   -1.7796    0.1280 H   0  0  0  0  0  0  0  0  0  0  0  0 
    0.5640   -4.3736   -1.9192 H   0  0  0  0  0  0  0  0  0  0  0  0 
    0.6413   -2.7204   -1.7903 H   0  0  0  0  0  0  0  0  0  0  0  0 
    3.4967    2.8824   -1.6942 H   0  0  0  0  0  0  0  0  0  0  0  0 
    2.0327    2.1058   -1.6720 H   0  0  0  0  0  0  0  0  0  0  0  0 
   -2.3319   -2.2490    1.4549 H   0  0  0  0  0  0  0  0  0  0  0  0 
    2.8511   -0.6715    1.6676 H   0  0  0  0  0  0  0  0  0  0  0  0 
  1  3  2  0  0  0  0 
  2  5  2  0  0  0  0 
  2  1  1  0  0  0  0 
  3  6  1  0  0  0  0 
  3 17  1  0  0  0  0 
  4 18  1  0  0  0  0 
  4  6  2  0  0  0  0 
  5  4  1  0  0  0  0 
  6  8  1  0  0  0  0 
  7  5  1  0  0  0  0 
  7 13  1  0  0  0  0 
  8 14  1  0  0  0  0 
  9 11  1  0  0  0  0 
 10 12  1  0  0  0  0 
 11  7  2  0  0  0  0 
 12  8  2  0  0  0  0 
 13 23  1  0  0  0  0 
 14 24  1  0  0  0  0 
 15  1  1  0  0  0  0 
 16  2  1  0  0  0  0 
 19  9  1  0  0  0  0 
 20  9  1  0  0  0  0 
 21 10  1  0  0  0  0 
 22 10  1  0  0  0  0 
M  END 
>  <HBA> 
6 
 
>  <HBD> 
4 
 
>  <TPSA> 
110.24 
 
>  <cid> 
72700 
 
>  <dipole> 
3.35 
 
>  <excitation_energy_1> 
3.635 
 
>  <excitation_energy_2> 
3.735 
 
>  <excitation_energy_3> 
3.879 
 
>  <excitation_energy_4> 
3.988 
 
>  <homo_energy> 
-5.753 
 
>  <homo_lumo_gap> 
4.299 
 
>  <logP> 
1.076 
 
>  <lumo_energy> 
-1.453 
 
>  <melting_point> 
238.29 
 
>  <molecular_refractivity> 
48.24 
 
>  <oscillator_strength_1> 
0.0316 
 
>  <oscillator_strength_2> 
0.0488 
 
>  <oscillator_strength_3> 
0.1123 
 
>  <oscillator_strength_4> 
0.0295 
 
>  <open_babel_can_smiles> 
N/N=C(\c1cccc(c1)/C(=N\N)/O)/O 
 
>  <mulliken_charges> 
24 
1   -0.134437 
2   -0.181482 
3   -0.17515 
4   -0.252563 
5   0.047387 
6   0.039314 
7   0.418883 
8   0.427229 
9   -0.573154 
10   -0.575967 
11   -0.303734 
12   -0.30812 
13   -0.595134 
14   -0.592097 
15   0.146517 
16   0.154247 
17   0.184127 
18   0.192776 
19   0.334804 
20   0.305293 
21   0.33336 
22   0.302566 
23   0.401358 
24   0.403977 
 
>  <lowdin_charges> 
24 
1   -0.15167 
2   -0.156234 
3   -0.15009 
4   -0.168487 
5   -0.045649 
6   -0.046226 
7   0.078537 
8   0.081601 
9   -0.442976 
10   -0.44721 
11   -0.124144 
12   -0.129733 
13   -0.382609 
14   -0.378158 
15   0.166891 
16   0.167556 
17   0.180705 
18   0.184354 
19   0.27503 
20   0.252085 
21   0.274547 
22   0.251538 
23   0.353951 
24   0.356389 
 
$$$$ 
 
