PCCDB-ID:  32761 
public computational chemistry database (PCCDB) project, http://pccdb.org 
 
 31 31  0  0  0  0  0  0  0  0999 V2000 
    1.1001   -0.1450    0.0716 C   0  0  0  0  0  0  0  0  0  0  0  0 
    2.0076    4.4137    1.8741 C   0  0  0  0  0  0  0  0  0  0  0  0 
    7.6398    0.7182   -0.1486 C   0  0  0  0  0  0  0  0  0  0  0  0 
    7.4556   -1.6212   -0.9746 C   0  0  0  0  0  0  0  0  0  0  0  0 
    3.2498   -1.3982   -0.4829 C   0  0  0  0  0  0  0  0  0  0  0  0 
    4.6348   -1.4921   -0.5876 C   0  0  0  0  0  0  0  0  0  0  0  0 
    4.8220    0.7659    0.2243 C   0  0  0  0  0  0  0  0  0  0  0  0 
    2.6003   -0.2450   -0.0309 C   0  0  0  0  0  0  0  0  0  0  0  0 
    5.4637   -0.4091   -0.2221 C   0  0  0  0  0  0  0  0  0  0  0  0 
    3.4377    0.8213    0.3067 C   0  0  0  0  0  0  0  0  0  0  0  0 
    2.4251    2.9888    0.0499 C   0  0  0  0  0  0  0  0  0  0  0  0 
    2.0086    4.1124    0.4521 N   0  0  0  0  0  0  0  0  0  0  0  0 
    6.8522   -0.4955   -0.2823 N   0  0  0  0  0  0  0  0  0  0  0  0 
    2.4477    2.6701   -1.2658 O   0  0  0  0  0  0  0  0  0  0  0  0 
    2.8773    1.9907    0.8499 O   0  0  0  0  0  0  0  0  0  0  0  0 
    0.6352   -1.1201   -0.1041 H   0  0  0  0  0  0  0  0  0  0  0  0 
    0.6940    0.5580   -0.6665 H   0  0  0  0  0  0  0  0  0  0  0  0 
    0.7851    0.2085    1.0602 H   0  0  0  0  0  0  0  0  0  0  0  0 
    2.2431    5.4747    2.0113 H   0  0  0  0  0  0  0  0  0  0  0  0 
    2.7237    3.8168    2.4535 H   0  0  0  0  0  0  0  0  0  0  0  0 
    1.0079    4.2461    2.2974 H   0  0  0  0  0  0  0  0  0  0  0  0 
    8.7001    0.4630   -0.2040 H   0  0  0  0  0  0  0  0  0  0  0  0 
    7.4681    1.1903    0.8258 H   0  0  0  0  0  0  0  0  0  0  0  0 
    7.4211    1.4632   -0.9313 H   0  0  0  0  0  0  0  0  0  0  0  0 
    8.5426   -1.5362   -0.9134 H   0  0  0  0  0  0  0  0  0  0  0  0 
    7.1725   -1.6756   -2.0389 H   0  0  0  0  0  0  0  0  0  0  0  0 
    7.1729   -2.5685   -0.5009 H   0  0  0  0  0  0  0  0  0  0  0  0 
    2.6475   -2.2584   -0.7667 H   0  0  0  0  0  0  0  0  0  0  0  0 
    5.0653   -2.4171   -0.9509 H   0  0  0  0  0  0  0  0  0  0  0  0 
    5.3800    1.6454    0.5181 H   0  0  0  0  0  0  0  0  0  0  0  0 
    2.1069    3.4642   -1.7144 H   0  0  0  0  0  0  0  0  0  0  0  0 
  1 18  1  0  0  0  0 
  2 19  1  0  0  0  0 
  2 21  1  0  0  0  0 
  2 20  1  0  0  0  0 
  3 23  1  0  0  0  0 
  4 25  1  0  0  0  0 
  4 27  1  0  0  0  0 
  4 13  1  0  0  0  0 
  5  8  1  0  0  0  0 
  6  5  2  0  0  0  0 
  6  9  1  0  0  0  0 
  7 10  1  0  0  0  0 
  7 30  1  0  0  0  0 
  8  1  1  0  0  0  0 
  8 10  2  0  0  0  0 
  9  7  2  0  0  0  0 
 10 15  1  0  0  0  0 
 11 12  2  0  0  0  0 
 11 15  1  0  0  0  0 
 12  2  1  0  0  0  0 
 13  9  1  0  0  0  0 
 13  3  1  0  0  0  0 
 14 11  1  0  0  0  0 
 16  1  1  0  0  0  0 
 17  1  1  0  0  0  0 
 22  3  1  0  0  0  0 
 24  3  1  0  0  0  0 
 26  4  1  0  0  0  0 
 28  5  1  0  0  0  0 
 29  6  1  0  0  0  0 
 31 14  1  0  0  0  0 
M  END 
>  <HBA> 
4 
 
>  <HBD> 
1 
 
>  <TPSA> 
41.57 
 
>  <cid> 
32761 
 
>  <dipole> 
2.71 
 
>  <excitation_energy_1> 
4.404 
 
>  <excitation_energy_2> 
4.533 
 
>  <excitation_energy_3> 
4.915 
 
>  <excitation_energy_4> 
5.072 
 
>  <homo_energy> 
-5.094 
 
>  <homo_lumo_gap> 
5.282 
 
>  <logP> 
2.17 
 
>  <lumo_energy> 
0.188 
 
>  <melting_point> 
81.85 
 
>  <molecular_refractivity> 
60.3 
 
>  <oscillator_strength_1> 
0.0571 
 
>  <oscillator_strength_2> 
0.0299 
 
>  <oscillator_strength_3> 
0.008 
 
>  <oscillator_strength_4> 
0.021 
 
>  <open_babel_can_smiles> 
C/N=C(\Oc1cc(ccc1C)N(C)C)/O 
 
>  <mulliken_charges> 
31 
1   -0.537425 
2   -0.32107 
3   -0.309576 
4   -0.310013 
5   -0.213852 
6   -0.180991 
7   -0.227258 
8   0.171681 
9   0.361985 
10   0.284971 
11   0.711724 
12   -0.48782 
13   -0.477207 
14   -0.593149 
15   -0.540297 
16   0.14933 
17   0.168575 
18   0.164491 
19   0.150296 
20   0.150844 
21   0.150886 
22   0.154065 
23   0.164719 
24   0.151231 
25   0.153841 
26   0.150009 
27   0.163634 
28   0.121893 
29   0.121987 
30   0.13121 
31   0.421287 
 
>  <lowdin_charges> 
31 
1   -0.441909 
2   -0.352504 
3   -0.349716 
4   -0.346354 
5   -0.152619 
6   -0.212228 
7   -0.220088 
8   -0.0373 
9   0.0617 
10   0.102459 
11   0.190769 
12   -0.27017 
13   -0.120656 
14   -0.363583 
15   -0.163307 
16   0.155336 
17   0.163237 
18   0.16124 
19   0.148212 
20   0.14457 
21   0.148481 
22   0.155366 
23   0.153863 
24   0.142078 
25   0.154749 
26   0.13874 
27   0.153508 
28   0.156005 
29   0.159989 
30   0.168693 
31   0.371439 
 
$$$$ 
 
