PCCDB-ID:  8857 
public computational chemistry database (PCCDB) project, http://pccdb.org 
 
 14 13  0  0  0  0  0  0  0  0999 V2000 
    2.6586   -0.8226   -1.4081 C   0  0  0  0  0  0  0  0  0  0  0  0 
    4.6088   -1.6137    2.5015 C   0  0  0  0  0  0  0  0  0  0  0  0 
    3.5596    0.1094   -0.6118 C   0  0  0  0  0  0  0  0  0  0  0  0 
    4.6187   -1.2523    1.0338 C   0  0  0  0  0  0  0  0  0  0  0  0 
    5.3596   -1.7268    0.2004 O   0  0  0  0  0  0  0  0  0  0  0  0 
    3.6756   -0.3177    0.7667 O   0  0  0  0  0  0  0  0  0  0  0  0 
    2.5268   -0.4348   -2.4249 H   0  0  0  0  0  0  0  0  0  0  0  0 
    1.6717   -0.9040   -0.9408 H   0  0  0  0  0  0  0  0  0  0  0  0 
    3.1022   -1.8199   -1.4769 H   0  0  0  0  0  0  0  0  0  0  0  0 
    5.4283   -2.3018    2.7116 H   0  0  0  0  0  0  0  0  0  0  0  0 
    3.6554   -2.0864    2.7616 H   0  0  0  0  0  0  0  0  0  0  0  0 
    4.7050   -0.7135    3.1165 H   0  0  0  0  0  0  0  0  0  0  0  0 
    3.1379    1.1157   -0.5477 H   0  0  0  0  0  0  0  0  0  0  0  0 
    4.5595    0.1625   -1.0495 H   0  0  0  0  0  0  0  0  0  0  0  0 
  1  8  1  0  0  0  0 
  1  3  1  0  0  0  0 
  2 10  1  0  0  0  0 
  2 11  1  0  0  0  0 
  2 12  1  0  0  0  0 
  3 13  1  0  0  0  0 
  3  6  1  0  0  0  0 
  4  2  1  0  0  0  0 
  5  4  2  0  0  0  0 
  6  4  1  0  0  0  0 
  7  1  1  0  0  0  0 
  9  1  1  0  0  0  0 
 14  3  1  0  0  0  0 
M  END 
>  <HBA> 
2 
 
>  <HBD> 
0 
 
>  <TPSA> 
26.3 
 
>  <cid> 
8857 
 
>  <dipole> 
1.77 
 
>  <excitation_energy_1> 
5.812 
 
>  <excitation_energy_2> 
7.028 
 
>  <excitation_energy_3> 
7.494 
 
>  <excitation_energy_4> 
7.653 
 
>  <homo_energy> 
-7.29 
 
>  <homo_lumo_gap> 
7.717 
 
>  <logP> 
0.569 
 
>  <lumo_energy> 
0.427 
 
>  <melting_point> 
-12.79 
 
>  <molecular_refractivity> 
22.63 
 
>  <oscillator_strength_1> 
0.0012 
 
>  <oscillator_strength_2> 
0.0269 
 
>  <oscillator_strength_3> 
0.0401 
 
>  <oscillator_strength_4> 
0.0459 
 
>  <open_babel_can_smiles> 
CCOC(=O)C 
 
>  <mulliken_charges> 
14 
1   -0.461558 
2   -0.522039 
3   -0.043009 
4   0.600058 
5   -0.469593 
6   -0.450049 
7   0.149953 
8   0.155938 
9   0.176019 
10   0.181685 
11   0.181485 
12   0.180272 
13   0.151049 
14   0.169789 
 
>  <lowdin_charges> 
14 
1   -0.453402 
2   -0.466205 
3   -0.126224 
4   0.202019 
5   -0.269364 
6   -0.203071 
7   0.157822 
8   0.154886 
9   0.164673 
10   0.17584 
11   0.177817 
12   0.176853 
13   0.15058 
14   0.157776 
 
$$$$ 
 
