PCCDB-ID:  62507 
public computational chemistry database (PCCDB) project, http://pccdb.org 
 
 30 31  0  0  1  0  0  0  0  0999 V2000 
   -0.2289    0.5728    0.8086 C   0  0  0  0  0  0  0  0  0  0  0  0 
    1.3979    2.0365   -0.4698 C   0  0  0  0  0  0  0  0  0  0  0  0 
    0.5464   -1.3937    1.8668 C   0  0  0  0  0  0  0  0  0  0  0  0 
    2.6314    3.6126   -1.7516 C   0  0  0  0  0  0  0  0  0  0  0  0 
    2.7571   -2.7521    2.0333 C   0  0  0  0  0  0  0  0  0  0  0  0 
    3.9745    5.6963   -2.5042 C   0  0  0  0  0  0  0  0  0  0  0  0 
    0.1943    1.9964    0.4670 C   0  0  1  0  0  0  0  0  0  0  0  0 
    1.7172   -1.9251    2.6577 C   0  0  2  0  0  0  0  0  0  0  0  0 
    2.7162    5.0835   -2.0566 C   0  0  2  0  0  0  0  0  0  0  0  0 
   -0.9279    2.6127   -0.1480 O   0  0  0  0  0  0  0  0  0  0  0  0 
    0.8451   -0.0661    1.4763 O   0  0  0  0  0  0  0  0  0  0  0  0 
    1.5965    3.4042   -0.8077 O   0  0  0  0  0  0  0  0  0  0  0  0 
    1.7319   -3.3447    2.8436 O   0  0  0  0  0  0  0  0  0  0  0  0 
    3.5002    5.8867   -1.1675 O   0  0  0  0  0  0  0  0  0  0  0  0 
   -0.4963    0.0343   -0.1156 H   0  0  0  0  0  0  0  0  0  0  0  0 
   -1.1269    0.6072    1.4448 H   0  0  0  0  0  0  0  0  0  0  0  0 
    1.1849    1.4486   -1.3786 H   0  0  0  0  0  0  0  0  0  0  0  0 
    2.2878    1.6164    0.0190 H   0  0  0  0  0  0  0  0  0  0  0  0 
   -0.3642   -1.4177    2.4887 H   0  0  0  0  0  0  0  0  0  0  0  0 
    0.3654   -2.0399    0.9925 H   0  0  0  0  0  0  0  0  0  0  0  0 
    3.5972    3.2632   -1.3547 H   0  0  0  0  0  0  0  0  0  0  0  0 
    2.4206    3.0514   -2.6791 H   0  0  0  0  0  0  0  0  0  0  0  0 
    3.7600   -2.7742    2.4596 H   0  0  0  0  0  0  0  0  0  0  0  0 
    2.6974   -2.9767    0.9679 H   0  0  0  0  0  0  0  0  0  0  0  0 
    3.9458    6.5762   -3.1469 H   0  0  0  0  0  0  0  0  0  0  0  0 
    4.8724    5.0840   -2.5983 H   0  0  0  0  0  0  0  0  0  0  0  0 
    0.4655    2.5190    1.3980 H   0  0  0  0  0  0  0  0  0  0  0  0 
    1.9762   -1.3444    3.5448 H   0  0  0  0  0  0  0  0  0  0  0  0 
    1.7739    5.5418   -2.3630 H   0  0  0  0  0  0  0  0  0  0  0  0 
   -0.5879    3.4376   -0.5338 H   0  0  0  0  0  0  0  0  0  0  0  0 
  1 16  1  0  0  0  0 
  1 11  1  0  0  0  0 
  2 18  1  0  0  0  0 
  2  7  1  0  0  0  0 
  3 19  1  0  0  0  0 
  3  8  1  0  0  0  0 
  4 21  1  0  0  0  0 
  4 12  1  0  0  0  0 
  5 23  1  0  0  0  0 
  5  8  1  0  0  0  0 
  5 13  1  0  0  0  0 
  6  9  1  0  0  0  0 
  6 14  1  0  0  0  0 
  7  1  1  0  0  0  0 
  7 27  1  1  0  0  0 
  8 13  1  0  0  0  0 
  8 28  1  1  0  0  0 
  9 29  1  6  0  0  0 
  9  4  1  0  0  0  0 
  9 14  1  0  0  0  0 
 10  7  1  0  0  0  0 
 11  3  1  0  0  0  0 
 12  2  1  0  0  0  0 
 15  1  1  0  0  0  0 
 17  2  1  0  0  0  0 
 20  3  1  0  0  0  0 
 22  4  1  0  0  0  0 
 24  5  1  0  0  0  0 
 25  6  1  0  0  0  0 
 26  6  1  0  0  0  0 
 30 10  1  0  0  0  0 
M  END 
>  <HBA> 
5 
 
>  <HBD> 
1 
 
>  <TPSA> 
63.75 
 
>  <cid> 
62507 
 
>  <dipole> 
3.6 
 
>  <excitation_energy_1> 
6.721 
 
>  <excitation_energy_2> 
6.872 
 
>  <excitation_energy_3> 
6.921 
 
>  <excitation_energy_4> 
6.984 
 
>  <homo_energy> 
-7.168 
 
>  <homo_lumo_gap> 
8.838 
 
>  <logP> 
-0.822 
 
>  <lumo_energy> 
1.671 
 
>  <melting_point> 
-0.58 
 
>  <molecular_refractivity> 
46.65 
 
>  <oscillator_strength_1> 
0.0061 
 
>  <oscillator_strength_2> 
0.0227 
 
>  <oscillator_strength_3> 
0.005 
 
>  <oscillator_strength_4> 
0.0136 
 
>  <open_babel_can_smiles> 
O[C@H](COC[C@H]1OC1)COC[C@H]1OC1 
 
>  <mulliken_charges> 
30 
1   -0.02053 
2   -0.024282 
3   -0.026866 
4   -0.01835 
5   -0.10383 
6   -0.115683 
7   0.108534 
8   0.089514 
9   0.08571 
10   -0.64648 
11   -0.48981 
12   -0.500253 
13   -0.445466 
14   -0.428333 
15   0.129719 
16   0.143654 
17   0.121389 
18   0.146828 
19   0.136429 
20   0.13125 
21   0.136193 
22   0.127499 
23   0.154302 
24   0.150879 
25   0.156067 
26   0.150967 
27   0.137556 
28   0.154646 
29   0.152046 
30   0.406704 
 
>  <lowdin_charges> 
30 
1   -0.134108 
2   -0.149899 
3   -0.131244 
4   -0.132714 
5   -0.160215 
6   -0.164235 
7   -0.013159 
8   -0.025261 
9   -0.029003 
10   -0.464997 
11   -0.274456 
12   -0.277457 
13   -0.283407 
14   -0.276796 
15   0.132866 
16   0.142177 
17   0.130856 
18   0.146154 
19   0.137751 
20   0.136915 
21   0.14141 
22   0.135027 
23   0.15551 
24   0.151043 
25   0.157488 
26   0.153016 
27   0.138205 
28   0.155409 
29   0.154665 
30   0.348456 
 
$$$$ 
 
