PCCDB-ID:  49847 
public computational chemistry database (PCCDB) project, http://pccdb.org 
 
 37 37  0  0  1  0  0  0  0  0999 V2000 
    3.1298   -1.9463    3.7026 C   0  0  0  0  0  0  0  0  0  0  0  0 
    2.2237    0.9081   -1.3266 C   0  0  0  0  0  0  0  0  0  0  0  0 
    2.6105    0.1678    2.4061 C   0  0  0  0  0  0  0  0  0  0  0  0 
    2.4080    0.8336    1.1940 C   0  0  0  0  0  0  0  0  0  0  0  0 
    2.9439   -1.8797    1.1863 C   0  0  0  0  0  0  0  0  0  0  0  0 
    3.2953   -3.2403   -1.3722 C   0  0  0  0  0  0  0  0  0  0  0  0 
    1.7606   -3.9054   -3.2930 C   0  0  0  0  0  0  0  0  0  0  0  0 
    2.8814   -1.2011    2.4105 C   0  0  0  0  0  0  0  0  0  0  0  0 
    2.4624    0.1735   -0.0307 C   0  0  0  0  0  0  0  0  0  0  0  0 
    3.2119   -3.7107   -2.8245 C   0  0  1  0  0  0  0  0  0  0  0  0 
    2.7363   -1.2198   -0.0346 C   0  0  0  0  0  0  0  0  0  0  0  0 
    1.8670   -5.4086   -5.2481 C   0  0  0  0  0  0  0  0  0  0  0  0 
    2.2297   -6.3638   -4.4760 N   0  0  0  0  0  0  0  0  0  0  0  0 
    1.5502   -5.4801   -6.6124 N   0  0  0  0  0  0  0  0  0  0  0  0 
    2.7454   -1.9001   -1.2543 N   0  0  0  0  0  0  0  0  0  0  0  0 
    1.7086   -4.1096   -4.7480 N   0  0  0  0  0  0  0  0  0  0  0  0 
    3.8574   -2.7239   -3.6306 O   0  0  0  0  0  0  0  0  0  0  0  0 
    2.8630   -1.3362    4.5717 H   0  0  0  0  0  0  0  0  0  0  0  0 
    4.1866   -2.2258    3.8079 H   0  0  0  0  0  0  0  0  0  0  0  0 
    2.5470   -2.8740    3.7515 H   0  0  0  0  0  0  0  0  0  0  0  0 
    1.9668    1.9552   -1.1400 H   0  0  0  0  0  0  0  0  0  0  0  0 
    1.4042    0.4567   -1.9024 H   0  0  0  0  0  0  0  0  0  0  0  0 
    3.1099    0.9041   -1.9793 H   0  0  0  0  0  0  0  0  0  0  0  0 
    2.5567    0.7159    3.3433 H   0  0  0  0  0  0  0  0  0  0  0  0 
    2.1955    1.9011    1.2002 H   0  0  0  0  0  0  0  0  0  0  0  0 
    3.1623   -2.9434    1.1914 H   0  0  0  0  0  0  0  0  0  0  0  0 
    4.3452   -3.2894   -1.0376 H   0  0  0  0  0  0  0  0  0  0  0  0 
    2.7237   -3.9367   -0.7462 H   0  0  0  0  0  0  0  0  0  0  0  0 
    1.1926   -2.9990   -3.0673 H   0  0  0  0  0  0  0  0  0  0  0  0 
    1.3103   -4.7534   -2.7653 H   0  0  0  0  0  0  0  0  0  0  0  0 
    3.7353   -4.6725   -2.9097 H   0  0  0  0  0  0  0  0  0  0  0  0 
    2.3829   -7.2263   -5.0005 H   0  0  0  0  0  0  0  0  0  0  0  0 
    1.8387   -6.3439   -7.0555 H   0  0  0  0  0  0  0  0  0  0  0  0 
    1.8424   -4.6727   -7.1532 H   0  0  0  0  0  0  0  0  0  0  0  0 
    3.0299   -1.3344   -2.0465 H   0  0  0  0  0  0  0  0  0  0  0  0 
    0.9397   -3.6236   -5.1957 H   0  0  0  0  0  0  0  0  0  0  0  0 
    3.5323   -2.8905   -4.5338 H   0  0  0  0  0  0  0  0  0  0  0  0 
  1 20  1  0  0  0  0 
  1 19  1  0  0  0  0 
  1 18  1  0  0  0  0 
  2 21  1  0  0  0  0 
  2  9  1  0  0  0  0 
  3  8  1  0  0  0  0 
  3 24  1  0  0  0  0 
  4 25  1  0  0  0  0 
  4  3  2  0  0  0  0 
  5 26  1  0  0  0  0 
  5  8  2  0  0  0  0 
  6 15  1  0  0  0  0 
  6 27  1  0  0  0  0 
  6 28  1  0  0  0  0 
  7 29  1  0  0  0  0 
  7 10  1  0  0  0  0 
  7 30  1  0  0  0  0 
  8  1  1  0  0  0  0 
  9  4  1  0  0  0  0 
 10 31  1  6  0  0  0 
 10  6  1  0  0  0  0 
 11  9  2  0  0  0  0 
 11  5  1  0  0  0  0 
 12 16  1  0  0  0  0 
 12 13  1  0  0  0  0 
 14 12  2  0  0  0  0 
 15 11  1  0  0  0  0 
 16  7  1  0  0  0  0 
 17 10  1  0  0  0  0 
 22  2  1  0  0  0  0 
 23  2  1  0  0  0  0 
 32 13  1  0  0  0  0 
 33 14  1  0  0  0  0 
 34 14  1  0  0  0  0 
 35 15  1  0  0  0  0 
 36 16  1  0  0  0  0 
 37 17  1  0  0  0  0 
M  RAD  1  13   2 
M  END 
>  <HBA> 
5 
 
>  <HBD> 
4 
 
>  <TPSA> 
96.66 
 
>  <cid> 
49847 
 
>  <dipole> 
5.26 
 
>  <excitation_energy_1> 
4.168 
 
>  <excitation_energy_2> 
4.576 
 
>  <excitation_energy_3> 
4.746 
 
>  <excitation_energy_4> 
4.833 
 
>  <homo_energy> 
-4.914 
 
>  <homo_lumo_gap> 
5.483 
 
>  <logP> 
1.823 
 
>  <lumo_energy> 
0.569 
 
>  <melting_point> 
190.53 
 
>  <molecular_refractivity> 
70.36 
 
>  <oscillator_strength_1> 
0.0008 
 
>  <oscillator_strength_2> 
0.0576 
 
>  <oscillator_strength_3> 
0.0048 
 
>  <oscillator_strength_4> 
0.0144 
 
>  <open_babel_can_smiles> 
Cc1ccc(cc1NC[C@@H](CNC(=[NH2])[NH])O)C 
 
>  <mulliken_charges> 
37 
1   -0.529427 
2   -0.552594 
3   -0.189277 
4   -0.199198 
5   -0.240391 
6   -0.120481 
7   -0.143941 
8   0.174125 
9   0.152311 
10   0.121248 
11   0.295251 
12   0.581521 
13   -0.629842 
14   -0.753657 
15   -0.68986 
16   -0.637747 
17   -0.652566 
18   0.150398 
19   0.158259 
20   0.153343 
21   0.154268 
22   0.156779 
23   0.153863 
24   0.106932 
25   0.110846 
26   0.113752 
27   0.144607 
28   0.149878 
29   0.155573 
30   0.171766 
31   0.152019 
32   0.271501 
33   0.324525 
34   0.323614 
35   0.335029 
36   0.328336 
37   0.399236 
 
>  <lowdin_charges> 
37 
1   -0.440757 
2   -0.445626 
3   -0.201593 
4   -0.159013 
5   -0.218074 
6   -0.201892 
7   -0.219099 
8   0.005088 
9   -0.040969 
10   -0.012929 
11   0.050858 
12   0.127058 
13   -0.467995 
14   -0.511243 
15   -0.305828 
16   -0.32289 
17   -0.476821 
18   0.154793 
19   0.156386 
20   0.155637 
21   0.156577 
22   0.155384 
23   0.152056 
24   0.149148 
25   0.14769 
26   0.150685 
27   0.138213 
28   0.152265 
29   0.156338 
30   0.162341 
31   0.147008 
32   0.251864 
33   0.279527 
34   0.279848 
35   0.278507 
36   0.279287 
37   0.338172 
 
$$$$ 
 
