PCCDB-ID:  66885 
public computational chemistry database (PCCDB) project, http://pccdb.org 
 
 28 28  0  0  0  0  0  0  0  0999 V2000 
   -0.7761    2.2383    0.7852 C   0  0  0  0  0  0  0  0  0  0  0  0 
   -1.5246    1.0684    0.9116 C   0  0  0  0  0  0  0  0  0  0  0  0 
    0.4681    2.2537    0.1554 C   0  0  0  0  0  0  0  0  0  0  0  0 
   -3.2770   -2.9001    1.0858 C   0  0  0  0  0  0  0  0  0  0  0  0 
    4.1923    1.6552   -1.9916 C   0  0  0  0  0  0  0  0  0  0  0  0 
   -2.8968   -1.4281    1.1180 C   0  0  0  0  0  0  0  0  0  0  0  0 
    2.9807    2.1053   -1.1907 C   0  0  0  0  0  0  0  0  0  0  0  0 
    0.2406   -0.1296   -0.2474 C   0  0  0  0  0  0  0  0  0  0  0  0 
   -1.0023   -0.1230    0.3887 C   0  0  0  0  0  0  0  0  0  0  0  0 
    0.9727    1.0534   -0.3646 C   0  0  0  0  0  0  0  0  0  0  0  0 
   -2.3319   -3.7004    1.7717 O   0  0  0  0  0  0  0  0  0  0  0  0 
    3.8224    1.1422   -3.2582 O   0  0  0  0  0  0  0  0  0  0  0  0 
   -1.6390   -1.3328    0.4473 O   0  0  0  0  0  0  0  0  0  0  0  0 
    2.1798    0.9378   -0.9990 O   0  0  0  0  0  0  0  0  0  0  0  0 
   -1.1739    3.1652    1.1896 H   0  0  0  0  0  0  0  0  0  0  0  0 
   -2.4881    1.0923    1.4057 H   0  0  0  0  0  0  0  0  0  0  0  0 
    1.0235    3.1801    0.0758 H   0  0  0  0  0  0  0  0  0  0  0  0 
   -3.3952   -3.2190    0.0378 H   0  0  0  0  0  0  0  0  0  0  0  0 
   -4.2384   -3.0387    1.5911 H   0  0  0  0  0  0  0  0  0  0  0  0 
    4.7589    0.9155   -1.4035 H   0  0  0  0  0  0  0  0  0  0  0  0 
    4.8466    2.5139   -2.1743 H   0  0  0  0  0  0  0  0  0  0  0  0 
   -2.7966   -1.0865    2.1567 H   0  0  0  0  0  0  0  0  0  0  0  0 
   -3.6530   -0.8134    0.6091 H   0  0  0  0  0  0  0  0  0  0  0  0 
    2.4162    2.8613   -1.7522 H   0  0  0  0  0  0  0  0  0  0  0  0 
    3.2827    2.5286   -0.2221 H   0  0  0  0  0  0  0  0  0  0  0  0 
    0.6378   -1.0547   -0.6504 H   0  0  0  0  0  0  0  0  0  0  0  0 
   -1.4697   -3.4951    1.3746 H   0  0  0  0  0  0  0  0  0  0  0  0 
    3.1682    0.4459   -3.0840 H   0  0  0  0  0  0  0  0  0  0  0  0 
  1  2  1  0  0  0  0 
  1 15  1  0  0  0  0 
  2 16  1  0  0  0  0 
  3  1  2  0  0  0  0 
  4  6  1  0  0  0  0 
  4 19  1  0  0  0  0 
  4 11  1  0  0  0  0 
  5 20  1  0  0  0  0 
  5  7  1  0  0  0  0 
  6 22  1  0  0  0  0 
  7 14  1  0  0  0  0 
  7 25  1  0  0  0  0 
  8  9  1  0  0  0  0 
  9 13  1  0  0  0  0 
  9  2  2  0  0  0  0 
 10  8  2  0  0  0  0 
 10  3  1  0  0  0  0 
 12 28  1  0  0  0  0 
 12  5  1  0  0  0  0 
 13  6  1  0  0  0  0 
 14 10  1  0  0  0  0 
 17  3  1  0  0  0  0 
 18  4  1  0  0  0  0 
 21  5  1  0  0  0  0 
 23  6  1  0  0  0  0 
 24  7  1  0  0  0  0 
 26  8  1  0  0  0  0 
 27 11  1  0  0  0  0 
M  END 
>  <HBA> 
4 
 
>  <HBD> 
2 
 
>  <TPSA> 
58.92 
 
>  <cid> 
66885 
 
>  <dipole> 
2.41 
 
>  <excitation_energy_1> 
5.0 
 
>  <excitation_energy_2> 
5.591 
 
>  <excitation_energy_3> 
5.605 
 
>  <excitation_energy_4> 
5.855 
 
>  <homo_energy> 
-6.06 
 
>  <homo_lumo_gap> 
5.995 
 
>  <logP> 
0.429 
 
>  <lumo_energy> 
-0.065 
 
>  <melting_point> 
50.44 
 
>  <molecular_refractivity> 
51.36 
 
>  <oscillator_strength_1> 
0.0363 
 
>  <oscillator_strength_2> 
0.0084 
 
>  <oscillator_strength_3> 
0.0005 
 
>  <oscillator_strength_4> 
0.0091 
 
>  <open_babel_can_smiles> 
OCCOc1cccc(c1)OCCO 
 
>  <mulliken_charges> 
28 
1   -0.145511 
2   -0.194779 
3   -0.19487 
4   -0.041033 
5   -0.041035 
6   -0.052297 
7   -0.052517 
8   -0.240233 
9   0.388308 
10   0.388334 
11   -0.616297 
12   -0.616303 
13   -0.542931 
14   -0.542968 
15   0.13435 
16   0.133765 
17   0.133842 
18   0.135908 
19   0.150637 
20   0.135895 
21   0.15065 
22   0.153501 
23   0.14023 
24   0.153486 
25   0.140353 
26   0.137366 
27   0.402067 
28   0.402083 
 
>  <lowdin_charges> 
28 
1   -0.134932 
2   -0.228466 
3   -0.231193 
4   -0.136641 
5   -0.141531 
6   -0.146939 
7   -0.148254 
8   -0.216097 
9   0.111364 
10   0.113653 
11   -0.463349 
12   -0.464328 
13   -0.21237 
14   -0.212736 
15   0.160631 
16   0.162955 
17   0.163837 
18   0.133838 
19   0.153152 
20   0.137038 
21   0.153945 
22   0.145441 
23   0.14458 
24   0.148189 
25   0.143408 
26   0.171502 
27   0.346256 
28   0.347046 
 
$$$$ 
 
