PCCDB-ID:  31606 
public computational chemistry database (PCCDB) project, http://pccdb.org 
 
 24 25  0  0  0  0  0  0  0  0999 V2000 
    1.7981    0.6846    0.2482 C   0  0  0  0  0  0  0  0  0  0  0  0 
    6.3432   -3.5167    0.4460 C   0  0  0  0  0  0  0  0  0  0  0  0 
    6.5730   -4.9057    0.2800 C   0  0  0  0  0  0  0  0  0  0  0  0 
    2.9175   -0.3108    0.2609 C   0  0  0  0  0  0  0  0  0  0  0  0 
    5.0018   -3.3078    0.2003 C   0  0  0  0  0  0  0  0  0  0  0  0 
    5.3585   -5.4380   -0.0546 C   0  0  0  0  0  0  0  0  0  0  0  0 
    2.8840   -1.7498    0.1438 C   0  0  0  0  0  0  0  0  0  0  0  0 
    4.2195   -2.0975    0.2132 C   0  0  0  0  0  0  0  0  0  0  0  0 
    1.6738   -2.5908    0.0091 C   0  0  0  0  0  0  0  0  0  0  0  0 
    1.5282   -3.8071   -0.3296 N   0  0  0  0  0  0  0  0  0  0  0  0 
    4.1458    0.1358    0.3828 N   0  0  0  0  0  0  0  0  0  0  0  0 
    4.9662   -6.7773   -0.3559 N   0  0  0  0  0  0  0  0  0  0  0  0 
    0.5568   -1.8696    0.3123 O   0  0  0  0  0  0  0  0  0  0  0  0 
    5.8587   -7.6264   -0.2839 O   0  0  0  0  0  0  0  0  0  0  0  0 
    3.7908   -6.9761   -0.6608 O   0  0  0  0  0  0  0  0  0  0  0  0 
    4.3951   -4.4879   -0.1095 O   0  0  0  0  0  0  0  0  0  0  0  0 
    4.9742   -0.9873    0.3578 O   0  0  0  0  0  0  0  0  0  0  0  0 
    1.2039    0.5916   -0.6652 H   0  0  0  0  0  0  0  0  0  0  0  0 
    2.2167    1.6921    0.3069 H   0  0  0  0  0  0  0  0  0  0  0  0 
    1.1215    0.5200    1.0903 H   0  0  0  0  0  0  0  0  0  0  0  0 
    7.0605   -2.7556    0.7149 H   0  0  0  0  0  0  0  0  0  0  0  0 
    7.4965   -5.4532    0.3898 H   0  0  0  0  0  0  0  0  0  0  0  0 
    2.3945   -4.2906   -0.5472 H   0  0  0  0  0  0  0  0  0  0  0  0 
   -0.1814   -2.4951    0.1843 H   0  0  0  0  0  0  0  0  0  0  0  0 
  1  4  1  0  0  0  0 
  1 19  1  0  0  0  0 
  1 20  1  0  0  0  0 
  2 21  1  0  0  0  0 
  3 22  1  0  0  0  0 
  3  2  1  0  0  0  0 
  4 11  2  0  0  0  0 
  5  8  1  0  0  0  0 
  5  2  2  0  0  0  0 
  6  3  2  0  0  0  0 
  7  8  2  0  0  0  0 
  7  4  1  0  0  0  0 
  8 17  1  0  0  0  0 
  9  7  1  0  0  0  0 
  9 13  1  0  0  0  0 
 10  9  2  0  0  0  0 
 12 14  2  0  0  0  0 
 12  6  1  0  0  0  0 
 15 12  2  0  0  0  0 
 16  6  1  0  0  0  0 
 16  5  1  0  0  0  0 
 17 11  1  0  0  0  0 
 18  1  1  0  0  0  0 
 23 10  1  0  0  0  0 
 24 13  1  0  0  0  0 
M  END 
>  <HBA> 
5 
 
>  <HBD> 
1 
 
>  <TPSA> 
128.08 
 
>  <cid> 
31606 
 
>  <dipole> 
3.22 
 
>  <excitation_energy_1> 
3.372 
 
>  <excitation_energy_2> 
3.693 
 
>  <excitation_energy_3> 
3.79 
 
>  <excitation_energy_4> 
3.961 
 
>  <homo_energy> 
-6.925 
 
>  <homo_lumo_gap> 
3.772 
 
>  <logP> 
2.474 
 
>  <lumo_energy> 
-3.154 
 
>  <melting_point> 
190.0 
 
>  <molecular_refractivity> 
56.09 
 
>  <oscillator_strength_1> 
0.2734 
 
>  <oscillator_strength_2> 
0.0005 
 
>  <oscillator_strength_3> 
0.0001 
 
>  <oscillator_strength_4> 
0.184 
 
>  <open_babel_can_smiles> 
OC(=N)c1c(C)noc1c1ccc(o1)N(=O)=O 
 
>  <mulliken_charges> 
24 
1   -0.499936 
2   -0.178687 
3   -0.147807 
4   0.312541 
5   0.334989 
6   0.553278 
7   -0.035388 
8   0.313696 
9   0.43805 
10   -0.648823 
11   -0.202207 
12   0.32774 
13   -0.604162 
14   -0.394362 
15   -0.382374 
16   -0.479609 
17   -0.400515 
18   0.180297 
19   0.178075 
20   0.190132 
21   0.192193 
22   0.200471 
23   0.333741 
24   0.418668 
 
>  <lowdin_charges> 
24 
1   -0.437856 
2   -0.170687 
3   -0.145319 
4   0.040975 
5   0.088001 
6   0.076385 
7   -0.088845 
8   0.088483 
9   0.13177 
10   -0.414 
11   -0.06554 
12   0.303836 
13   -0.370607 
14   -0.245534 
15   -0.229797 
16   -0.060175 
17   -0.065401 
18   0.175715 
19   0.172699 
20   0.180498 
21   0.196284 
22   0.201626 
23   0.272131 
24   0.365358 
 
$$$$ 
 
