PCCDB-ID:  7444 
public computational chemistry database (PCCDB) project, http://pccdb.org 
 
 19 19  0  0  0  0  0  0  0  0999 V2000 
    0.9216    0.0365    0.2367 C   0  0  0  0  0  0  0  0  0  0  0  0 
    3.1404   -1.1671    0.0539 C   0  0  0  0  0  0  0  0  0  0  0  0 
    4.5266   -1.1989   -0.0843 C   0  0  0  0  0  0  0  0  0  0  0  0 
    4.5139    1.2361   -0.2194 C   0  0  0  0  0  0  0  0  0  0  0  0 
    2.4186    0.0294    0.0637 C   0  0  0  0  0  0  0  0  0  0  0  0 
    5.1872    0.0187   -0.2161 C   0  0  0  0  0  0  0  0  0  0  0  0 
    3.1212    1.2528   -0.0770 C   0  0  0  0  0  0  0  0  0  0  0  0 
    2.4376    2.4665   -0.0101 N   0  0  0  0  0  0  0  0  0  0  0  0 
    6.6490    0.0280   -0.3683 N   0  0  0  0  0  0  0  0  0  0  0  0 
    7.2340   -1.0554   -0.3597 O   0  0  0  0  0  0  0  0  0  0  0  0 
    7.2067    1.1192   -0.4972 O   0  0  0  0  0  0  0  0  0  0  0  0 
    0.5364   -0.9756    0.3863 H   0  0  0  0  0  0  0  0  0  0  0  0 
    0.4084    0.4535   -0.6427 H   0  0  0  0  0  0  0  0  0  0  0  0 
    0.6249    0.6462    1.1001 H   0  0  0  0  0  0  0  0  0  0  0  0 
    2.5977   -2.1027    0.1612 H   0  0  0  0  0  0  0  0  0  0  0  0 
    5.0850   -2.1257   -0.0892 H   0  0  0  0  0  0  0  0  0  0  0  0 
    5.0790    2.1548   -0.3271 H   0  0  0  0  0  0  0  0  0  0  0  0 
    2.9510    3.2663   -0.3583 H   0  0  0  0  0  0  0  0  0  0  0  0 
    1.4838    2.4569   -0.3473 H   0  0  0  0  0  0  0  0  0  0  0  0 
  1 12  1  0  0  0  0 
  1 14  1  0  0  0  0 
  2  5  1  0  0  0  0 
  2 15  1  0  0  0  0 
  3  2  2  0  0  0  0 
  4  6  2  0  0  0  0 
  4  7  1  0  0  0  0 
  5  1  1  0  0  0  0 
  6  3  1  0  0  0  0 
  7  8  1  0  0  0  0 
  7  5  2  0  0  0  0 
  9 10  2  0  0  0  0 
  9  6  1  0  0  0  0 
 11  9  2  0  0  0  0 
 13  1  1  0  0  0  0 
 16  3  1  0  0  0  0 
 17  4  1  0  0  0  0 
 18  8  1  0  0  0  0 
 19  8  1  0  0  0  0 
M  END 
>  <HBA> 
1 
 
>  <HBD> 
1 
 
>  <TPSA> 
71.84 
 
>  <cid> 
7444 
 
>  <dipole> 
6.02 
 
>  <excitation_energy_1> 
3.199 
 
>  <excitation_energy_2> 
3.749 
 
>  <excitation_energy_3> 
4.288 
 
>  <excitation_energy_4> 
4.396 
 
>  <homo_energy> 
-6.071 
 
>  <homo_lumo_gap> 
3.916 
 
>  <logP> 
2.59 
 
>  <lumo_energy> 
-2.155 
 
>  <melting_point> 
97.11 
 
>  <molecular_refractivity> 
44.63 
 
>  <oscillator_strength_1> 
0.0382 
 
>  <oscillator_strength_2> 
0.0 
 
>  <oscillator_strength_3> 
0.0004 
 
>  <oscillator_strength_4> 
0.158 
 
>  <open_babel_can_smiles> 
O=N(=O)c1ccc(c(c1)N)C 
 
>  <mulliken_charges> 
19 
1   -0.556 
2   -0.208772 
3   -0.157201 
4   -0.209239 
5   0.180167 
6   0.272078 
7   0.255866 
8   -0.794986 
9   0.375351 
10   -0.397323 
11   -0.401783 
12   0.168583 
13   0.157329 
14   0.178181 
15   0.136436 
16   0.173429 
17   0.169124 
18   0.33008 
19   0.328679 
 
>  <lowdin_charges> 
19 
1   -0.445889 
2   -0.152919 
3   -0.167572 
4   -0.186496 
5   -0.015402 
6   0.008463 
7   0.055776 
8   -0.48154 
9   0.310006 
10   -0.249869 
11   -0.254619 
12   0.165128 
13   0.156398 
14   0.16756 
15   0.162544 
16   0.185139 
17   0.181717 
18   0.28216 
19   0.279417 
 
$$$$ 
 
