PCCDB-ID:  55720 
public computational chemistry database (PCCDB) project, http://pccdb.org 
 
 41 42  0  0  1  0  0  0  0  0999 V2000 
    5.4051   -0.5319   -1.7687 C   0  0  0  0  0  0  0  0  0  0  0  0 
    7.0643    4.5404    2.4651 C   0  0  0  0  0  0  0  0  0  0  0  0 
    7.2932    4.9138    0.9900 C   0  0  0  0  0  0  0  0  0  0  0  0 
    0.9785    2.0161   -3.3603 C   0  0  0  0  0  0  0  0  0  0  0  0 
    0.9786    0.8069   -2.6643 C   0  0  0  0  0  0  0  0  0  0  0  0 
    1.9757    2.9586   -3.0993 C   0  0  0  0  0  0  0  0  0  0  0  0 
    6.4033    3.1765    2.7121 C   0  0  0  0  0  0  0  0  0  0  0  0 
    8.3496    4.0260    0.3062 C   0  0  0  0  0  0  0  0  0  0  0  0 
    1.9712    0.5426   -1.7182 C   0  0  0  0  0  0  0  0  0  0  0  0 
    2.9629    2.6899   -2.1513 C   0  0  0  0  0  0  0  0  0  0  0  0 
    7.0278    1.9791    1.9811 C   0  0  0  0  0  0  0  0  0  0  0  0 
    7.8408    2.6878   -0.2587 C   0  0  0  0  0  0  0  0  0  0  0  0 
    4.0672    1.1897   -0.4340 C   0  0  0  0  0  0  0  0  0  0  0  0 
    5.4309    0.8238   -1.0606 C   0  0  1  0  0  0  0  0  0  0  0  0 
    2.9805    1.4763   -1.4466 C   0  0  0  0  0  0  0  0  0  0  0  0 
    6.4458    0.7613    0.0053 N   0  0  0  0  0  0  0  0  0  0  0  0 
    6.7907    2.0409    0.5308 N   0  0  0  0  0  0  0  0  0  0  0  0 
    4.6239   -0.5529   -2.5338 H   0  0  0  0  0  0  0  0  0  0  0  0 
    5.2092   -1.3353   -1.0487 H   0  0  0  0  0  0  0  0  0  0  0  0 
    6.3632   -0.7419   -2.2611 H   0  0  0  0  0  0  0  0  0  0  0  0 
    6.4493    5.3151    2.9427 H   0  0  0  0  0  0  0  0  0  0  0  0 
    8.0379    4.5690    2.9774 H   0  0  0  0  0  0  0  0  0  0  0  0 
    7.6365    5.9558    0.9516 H   0  0  0  0  0  0  0  0  0  0  0  0 
    6.3467    4.8756    0.4349 H   0  0  0  0  0  0  0  0  0  0  0  0 
    0.2062    2.2253   -4.0958 H   0  0  0  0  0  0  0  0  0  0  0  0 
    0.2040    0.0681   -2.8544 H   0  0  0  0  0  0  0  0  0  0  0  0 
    1.9810    3.9072   -3.6305 H   0  0  0  0  0  0  0  0  0  0  0  0 
    5.3476    3.2224    2.4145 H   0  0  0  0  0  0  0  0  0  0  0  0 
    6.4175    2.9709    3.7918 H   0  0  0  0  0  0  0  0  0  0  0  0 
    9.1600    3.8411    1.0235 H   0  0  0  0  0  0  0  0  0  0  0  0 
    8.8120    4.5689   -0.5279 H   0  0  0  0  0  0  0  0  0  0  0  0 
    1.9604   -0.4006   -1.1763 H   0  0  0  0  0  0  0  0  0  0  0  0 
    3.7293    3.4347   -1.9463 H   0  0  0  0  0  0  0  0  0  0  0  0 
    6.5444    1.0616    2.3237 H   0  0  0  0  0  0  0  0  0  0  0  0 
    8.1025    1.8849    2.2243 H   0  0  0  0  0  0  0  0  0  0  0  0 
    8.7109    2.0089   -0.3846 H   0  0  0  0  0  0  0  0  0  0  0  0 
    7.4296    2.8540   -1.2621 H   0  0  0  0  0  0  0  0  0  0  0  0 
    4.2330    2.0721    0.1942 H   0  0  0  0  0  0  0  0  0  0  0  0 
    3.7647    0.3721    0.2323 H   0  0  0  0  0  0  0  0  0  0  0  0 
    5.6757    1.5992   -1.8082 H   0  0  0  0  0  0  0  0  0  0  0  0 
    7.2870    0.3028   -0.3643 H   0  0  0  0  0  0  0  0  0  0  0  0 
  1 14  1  0  0  0  0 
  1 19  1  0  0  0  0 
  2  7  1  0  0  0  0 
  2 21  1  0  0  0  0 
  2 22  1  0  0  0  0 
  3  2  1  0  0  0  0 
  4  6  2  0  0  0  0 
  4  5  1  0  0  0  0 
  5  9  2  0  0  0  0 
  6 10  1  0  0  0  0 
  7 29  1  0  0  0  0 
  8  3  1  0  0  0  0 
  8 30  1  0  0  0  0 
  9 15  1  0  0  0  0 
  9 32  1  0  0  0  0 
 10 33  1  0  0  0  0 
 10 15  2  0  0  0  0 
 11 35  1  0  0  0  0 
 11 34  1  0  0  0  0 
 11  7  1  0  0  0  0 
 12  8  1  0  0  0  0 
 12 17  1  0  0  0  0 
 13 38  1  0  0  0  0 
 13 39  1  0  0  0  0 
 14 40  1  6  0  0  0 
 14 13  1  0  0  0  0 
 14 16  1  0  0  0  0 
 15 13  1  0  0  0  0 
 16 17  1  0  0  0  0 
 17 11  1  0  0  0  0 
 18  1  1  0  0  0  0 
 20  1  1  0  0  0  0 
 23  3  1  0  0  0  0 
 24  3  1  0  0  0  0 
 25  4  1  0  0  0  0 
 26  5  1  0  0  0  0 
 27  6  1  0  0  0  0 
 28  7  1  0  0  0  0 
 31  8  1  0  0  0  0 
 36 12  1  0  0  0  0 
 37 12  1  0  0  0  0 
 41 16  1  0  0  0  0 
M  END 
>  <HBA> 
2 
 
>  <HBD> 
1 
 
>  <TPSA> 
15.27 
 
>  <cid> 
55720 
 
>  <dipole> 
1.37 
 
>  <excitation_energy_1> 
5.161 
 
>  <excitation_energy_2> 
5.201 
 
>  <excitation_energy_3> 
5.309 
 
>  <excitation_energy_4> 
5.352 
 
>  <homo_energy> 
-5.753 
 
>  <homo_lumo_gap> 
5.913 
 
>  <logP> 
3.327 
 
>  <lumo_energy> 
0.161 
 
>  <melting_point> 
54.23 
 
>  <molecular_refractivity> 
77.36 
 
>  <oscillator_strength_1> 
0.0143 
 
>  <oscillator_strength_2> 
0.0276 
 
>  <oscillator_strength_3> 
0.0177 
 
>  <oscillator_strength_4> 
0.0073 
 
>  <open_babel_can_smiles> 
C[C@@H](Cc1ccccc1)NN1CCCCCC1 
 
>  <mulliken_charges> 
41 
1   -0.474001 
2   -0.260742 
3   -0.247673 
4   -0.132606 
5   -0.127902 
6   -0.128232 
7   -0.248336 
8   -0.286226 
9   -0.187167 
10   -0.182442 
11   -0.11795 
12   -0.11761 
13   -0.343372 
14   0.077278 
15   0.168806 
16   -0.443268 
17   -0.292222 
18   0.163659 
19   0.151907 
20   0.135663 
21   0.129793 
22   0.124961 
23   0.128567 
24   0.140508 
25   0.125245 
26   0.12583 
27   0.12547 
28   0.141298 
29   0.124588 
30   0.137329 
31   0.137588 
32   0.122722 
33   0.123855 
34   0.155106 
35   0.111264 
36   0.102319 
37   0.141841 
38   0.163525 
39   0.138137 
40   0.114557 
41   0.277934 
 
>  <lowdin_charges> 
41 
1   -0.455106 
2   -0.278226 
3   -0.277201 
4   -0.163765 
5   -0.158198 
6   -0.156224 
7   -0.278769 
8   -0.288112 
9   -0.170309 
10   -0.169633 
11   -0.206613 
12   -0.211386 
13   -0.283213 
14   -0.05987 
15   6e-05 
16   -0.290064 
17   -0.13612 
18   0.163878 
19   0.153111 
20   0.14553 
21   0.144426 
22   0.134797 
23   0.142137 
24   0.145131 
25   0.156199 
26   0.156499 
27   0.155209 
28   0.142901 
29   0.140482 
30   0.141677 
31   0.151237 
32   0.153711 
33   0.154916 
34   0.159455 
35   0.119813 
36   0.114196 
37   0.140355 
38   0.160509 
39   0.149687 
40   0.121976 
41   0.234919 
 
$$$$ 
 
