PCCDB-ID:  10582 
public computational chemistry database (PCCDB) project, http://pccdb.org 
 
 27 28  0  0  1  0  0  0  0  0999 V2000 
    1.0330   -0.0334    0.1823 C   0  0  0  0  0  0  0  0  0  0  0  0 
    2.8829    0.0507   -1.4700 C   0  0  0  0  0  0  0  0  0  0  0  0 
    5.4300    0.0944    0.4433 C   0  0  0  0  0  0  0  0  0  0  0  0 
    4.6746    1.4011    0.5707 C   0  0  0  0  0  0  0  0  0  0  0  0 
    3.1765    0.0807    2.0994 C   0  0  0  0  0  0  0  0  0  0  0  0 
    5.4302   -2.4140    0.4573 C   0  0  0  0  0  0  0  0  0  0  0  0 
    4.7780   -1.0676    0.6018 C   0  0  0  0  0  0  0  0  0  0  0  0 
    3.2048    1.1324    0.9555 C   0  0  2  0  0  0  0  0  0  0  0  0 
    3.3053   -0.9902    0.9731 C   0  0  2  0  0  0  0  0  0  0  0  0 
    2.5612    0.0363    0.0263 C   0  0  0  0  0  0  0  0  0  0  0  0 
    5.2983   -3.2186    1.6326 O   0  0  0  0  0  0  0  0  0  0  0  0 
    0.5601    0.8243   -0.3131 H   0  0  0  0  0  0  0  0  0  0  0  0 
    0.6995   -0.0355    1.2237 H   0  0  0  0  0  0  0  0  0  0  0  0 
    0.6421   -0.9430   -0.2908 H   0  0  0  0  0  0  0  0  0  0  0  0 
    2.4539    0.9438   -1.9430 H   0  0  0  0  0  0  0  0  0  0  0  0 
    2.4405   -0.8231   -1.9658 H   0  0  0  0  0  0  0  0  0  0  0  0 
    3.9553    0.0411   -1.6756 H   0  0  0  0  0  0  0  0  0  0  0  0 
    6.4910    0.1220    0.1966 H   0  0  0  0  0  0  0  0  0  0  0  0 
    4.7328    1.9637   -0.3735 H   0  0  0  0  0  0  0  0  0  0  0  0 
    5.1479    2.0433    1.3291 H   0  0  0  0  0  0  0  0  0  0  0  0 
    2.2208    0.0456    2.6260 H   0  0  0  0  0  0  0  0  0  0  0  0 
    3.9881    0.1169    2.8333 H   0  0  0  0  0  0  0  0  0  0  0  0 
    6.4870   -2.2947    0.1695 H   0  0  0  0  0  0  0  0  0  0  0  0 
    4.9389   -2.9975   -0.3313 H   0  0  0  0  0  0  0  0  0  0  0  0 
    2.6486    2.0679    1.0921 H   0  0  0  0  0  0  0  0  0  0  0  0 
    2.8600   -1.9773    1.1279 H   0  0  0  0  0  0  0  0  0  0  0  0 
    5.6856   -2.7118    2.3640 H   0  0  0  0  0  0  0  0  0  0  0  0 
  1 13  1  0  0  0  0 
  2 10  1  0  0  0  0 
  3  4  1  0  0  0  0 
  3  7  2  0  0  0  0 
  4  8  1  0  0  0  0 
  4 20  1  0  0  0  0 
  5 21  1  0  0  0  0 
  5 22  1  0  0  0  0 
  6  7  1  0  0  0  0 
  6 11  1  0  0  0  0 
  7  9  1  0  0  0  0 
  8 25  1  1  0  0  0 
  8  5  1  0  0  0  0 
  9 26  1  1  0  0  0 
  9  5  1  0  0  0  0 
 10  1  1  0  0  0  0 
 10  8  1  0  0  0  0 
 10  9  1  0  0  0  0 
 11 27  1  0  0  0  0 
 12  1  1  0  0  0  0 
 14  1  1  0  0  0  0 
 15  2  1  0  0  0  0 
 16  2  1  0  0  0  0 
 17  2  1  0  0  0  0 
 18  3  1  0  0  0  0 
 19  4  1  0  0  0  0 
 23  6  1  0  0  0  0 
 24  6  1  0  0  0  0 
M  END 
>  <HBA> 
1 
 
>  <HBD> 
1 
 
>  <TPSA> 
20.23 
 
>  <cid> 
10582 
 
>  <dipole> 
1.72 
 
>  <excitation_energy_1> 
5.706 
 
>  <excitation_energy_2> 
5.92 
 
>  <excitation_energy_3> 
6.124 
 
>  <excitation_energy_4> 
6.206 
 
>  <homo_energy> 
-6.272 
 
>  <homo_lumo_gap> 
6.591 
 
>  <logP> 
1.971 
 
>  <lumo_energy> 
0.318 
 
>  <melting_point> 
66.45 
 
>  <molecular_refractivity> 
46.38 
 
>  <oscillator_strength_1> 
0.0398 
 
>  <oscillator_strength_2> 
0.0665 
 
>  <oscillator_strength_3> 
0.0373 
 
>  <oscillator_strength_4> 
0.0072 
 
>  <open_babel_can_smiles> 
OCC1=CC[C@@H]2C[C@H]1C2(C)C 
 
>  <mulliken_charges> 
27 
1   -0.46424 
2   -0.466367 
3   -0.209295 
4   -0.287108 
5   -0.273954 
6   -0.107236 
7   0.179969 
8   -0.12722 
9   -0.192907 
10   0.133229 
11   -0.61006 
12   0.140188 
13   0.143507 
14   0.142358 
15   0.137089 
16   0.138054 
17   0.149257 
18   0.118193 
19   0.146076 
20   0.142986 
21   0.139263 
22   0.126885 
23   0.124865 
24   0.150539 
25   0.112563 
26   0.127959 
27   0.385407 
 
>  <lowdin_charges> 
27 
1   -0.442325 
2   -0.452954 
3   -0.188116 
4   -0.276481 
5   -0.281985 
6   -0.132356 
7   -0.037053 
8   -0.132566 
9   -0.137262 
10   0.013016 
11   -0.469865 
12   0.148721 
13   0.148327 
14   0.149328 
15   0.148453 
16   0.149447 
17   0.153594 
18   0.147949 
19   0.149957 
20   0.151524 
21   0.146871 
22   0.139129 
23   0.130001 
24   0.152325 
25   0.134956 
26   0.145935 
27   0.34143 
 
$$$$ 
 
