PCCDB-ID:  61968 
public computational chemistry database (PCCDB) project, http://pccdb.org 
 
 34 33  0  0  0  0  0  0  0  0999 V2000 
    1.1804    0.0860   -3.5079 C   0  0  0  0  0  0  0  0  0  0  0  0 
    1.4131    1.5268   -3.9812 C   0  0  0  0  0  0  0  0  0  0  0  0 
    2.7272    1.8007   -4.7400 C   0  0  0  0  0  0  0  0  0  0  0  0 
    4.0209    1.9055   -3.9063 C   0  0  0  0  0  0  0  0  0  0  0  0 
    4.6390    0.5797   -3.4348 C   0  0  0  0  0  0  0  0  0  0  0  0 
    5.9784    0.7392   -2.6897 C   0  0  0  0  0  0  0  0  0  0  0  0 
    7.1636    1.2708   -3.5162 C   0  0  0  0  0  0  0  0  0  0  0  0 
    7.6236    0.3260   -4.6445 C   0  0  0  0  0  0  0  0  0  0  0  0 
    8.7943    0.8735   -5.4142 C   0  0  0  0  0  0  0  0  0  0  0  0 
    9.9986    0.3039   -5.5015 C   0  0  0  0  0  0  0  0  0  0  0  0 
   11.1644    0.8678   -6.2750 C   0  0  0  0  0  0  0  0  0  0  0  0 
   10.8396    1.9720   -7.1061 O   0  0  0  0  0  0  0  0  0  0  0  0 
    0.1663   -0.0302   -3.1073 H   0  0  0  0  0  0  0  0  0  0  0  0 
    1.8776   -0.2144   -2.7198 H   0  0  0  0  0  0  0  0  0  0  0  0 
    1.2915   -0.6240   -4.3370 H   0  0  0  0  0  0  0  0  0  0  0  0 
    1.3460    2.2112   -3.1230 H   0  0  0  0  0  0  0  0  0  0  0  0 
    0.5830    1.8016   -4.6464 H   0  0  0  0  0  0  0  0  0  0  0  0 
    2.6022    2.7556   -5.2686 H   0  0  0  0  0  0  0  0  0  0  0  0 
    2.8593    1.0414   -5.5259 H   0  0  0  0  0  0  0  0  0  0  0  0 
    3.8355    2.5499   -3.0335 H   0  0  0  0  0  0  0  0  0  0  0  0 
    4.7628    2.4382   -4.5162 H   0  0  0  0  0  0  0  0  0  0  0  0 
    4.7663   -0.0871   -4.2995 H   0  0  0  0  0  0  0  0  0  0  0  0 
    3.9435    0.0642   -2.7629 H   0  0  0  0  0  0  0  0  0  0  0  0 
    6.2605   -0.2345   -2.2641 H   0  0  0  0  0  0  0  0  0  0  0  0 
    5.8244    1.4090   -1.8316 H   0  0  0  0  0  0  0  0  0  0  0  0 
    8.0123    1.4432   -2.8414 H   0  0  0  0  0  0  0  0  0  0  0  0 
    6.9189    2.2526   -3.9436 H   0  0  0  0  0  0  0  0  0  0  0  0 
    6.7851    0.1557   -5.3360 H   0  0  0  0  0  0  0  0  0  0  0  0 
    7.8797   -0.6543   -4.2197 H   0  0  0  0  0  0  0  0  0  0  0  0 
    8.6377    1.8285   -5.9176 H   0  0  0  0  0  0  0  0  0  0  0  0 
   10.1911   -0.6424   -4.9921 H   0  0  0  0  0  0  0  0  0  0  0  0 
   11.6421    0.0591   -6.8560 H   0  0  0  0  0  0  0  0  0  0  0  0 
   11.9325    1.2398   -5.5841 H   0  0  0  0  0  0  0  0  0  0  0  0 
   10.1660    1.6643   -7.7335 H   0  0  0  0  0  0  0  0  0  0  0  0 
  1 13  1  0  0  0  0 
  1 14  1  0  0  0  0 
  2  1  1  0  0  0  0 
  2 16  1  0  0  0  0 
  3  2  1  0  0  0  0 
  3  4  1  0  0  0  0 
  4  5  1  0  0  0  0 
  4 20  1  0  0  0  0 
  5 23  1  0  0  0  0 
  5  6  1  0  0  0  0 
  6 24  1  0  0  0  0 
  6 25  1  0  0  0  0 
  7 26  1  0  0  0  0 
  7  6  1  0  0  0  0 
  8 29  1  0  0  0  0 
  8  7  1  0  0  0  0 
  9  8  1  0  0  0  0 
 10  9  2  0  0  0  0 
 10 31  1  0  0  0  0 
 11 33  1  0  0  0  0 
 11 10  1  0  0  0  0 
 12 11  1  0  0  0  0 
 15  1  1  0  0  0  0 
 17  2  1  0  0  0  0 
 18  3  1  0  0  0  0 
 19  3  1  0  0  0  0 
 21  4  1  0  0  0  0 
 22  5  1  0  0  0  0 
 27  7  1  0  0  0  0 
 28  8  1  0  0  0  0 
 30  9  1  0  0  0  0 
 32 11  1  0  0  0  0 
 34 12  1  0  0  0  0 
M  END 
>  <HBA> 
1 
 
>  <HBD> 
1 
 
>  <TPSA> 
20.23 
 
>  <cid> 
61968 
 
>  <dipole> 
1.6 
 
>  <excitation_energy_1> 
5.934 
 
>  <excitation_energy_2> 
6.338 
 
>  <excitation_energy_3> 
6.408 
 
>  <excitation_energy_4> 
6.647 
 
>  <homo_energy> 
-6.52 
 
>  <homo_lumo_gap> 
7.252 
 
>  <logP> 
3.285 
 
>  <lumo_energy> 
0.732 
 
>  <melting_point> 
-1.48 
 
>  <molecular_refractivity> 
55.68 
 
>  <oscillator_strength_1> 
0.032 
 
>  <oscillator_strength_2> 
0.0002 
 
>  <oscillator_strength_3> 
0.0029 
 
>  <oscillator_strength_4> 
0.0249 
 
>  <open_babel_can_smiles> 
CCCCCCCC/C=C/CO 
 
>  <mulliken_charges> 
34 
1   -0.443655 
2   -0.24667 
3   -0.25424 
4   -0.254328 
5   -0.260646 
6   -0.259139 
7   -0.256927 
8   -0.302762 
9   -0.088112 
10   -0.155034 
11   -0.058604 
12   -0.607592 
13   0.140149 
14   0.14966 
15   0.14014 
16   0.12931 
17   0.13088 
18   0.127955 
19   0.124571 
20   0.12598 
21   0.131219 
22   0.129299 
23   0.1365 
24   0.126528 
25   0.128991 
26   0.137329 
27   0.135729 
28   0.141345 
29   0.133375 
30   0.126558 
31   0.118407 
32   0.126359 
33   0.160111 
34   0.387315 
 
>  <lowdin_charges> 
34 
1   -0.449012 
2   -0.27463 
3   -0.277527 
4   -0.280236 
5   -0.283835 
6   -0.277391 
7   -0.277226 
8   -0.27208 
9   -0.16714 
10   -0.201199 
11   -0.134406 
12   -0.461007 
13   0.147677 
14   0.147716 
15   0.146329 
16   0.139055 
17   0.142355 
18   0.142727 
19   0.137581 
20   0.137966 
21   0.142017 
22   0.137654 
23   0.145295 
24   0.139885 
25   0.141954 
26   0.146482 
27   0.139981 
28   0.147085 
29   0.14275 
30   0.150479 
31   0.149215 
32   0.1321 
33   0.156546 
34   0.342838 
 
$$$$ 
 
