PCCDB-ID:  6587 
public computational chemistry database (PCCDB) project, http://pccdb.org 
 
 10  9  0  0  0  0  0  0  0  0999 V2000 
    0.9165   -0.0524    0.0474 C   0  0  0  0  0  0  0  0  0  0  0  0 
    2.4428   -0.0847    0.0505 C   0  0  0  0  0  0  0  0  0  0  0  0 
    2.9139   -1.5149    0.1337 N   0  0  0  0  0  0  0  0  0  0  0  0 
    3.0709   -2.1149   -0.9260 O   0  0  0  0  0  0  0  0  0  0  0  0 
    3.0620   -1.9907    1.2560 O   0  0  0  0  0  0  0  0  0  0  0  0 
    0.5762    0.9860   -0.0124 H   0  0  0  0  0  0  0  0  0  0  0  0 
    0.5195   -0.4959    0.9651 H   0  0  0  0  0  0  0  0  0  0  0  0 
    0.5206   -0.5980   -0.8141 H   0  0  0  0  0  0  0  0  0  0  0  0 
    2.8625    0.4212    0.9208 H   0  0  0  0  0  0  0  0  0  0  0  0 
    2.8643    0.3175   -0.8714 H   0  0  0  0  0  0  0  0  0  0  0  0 
  1  2  1  0  0  0  0 
  1  7  1  0  0  0  0 
  2  3  1  0  0  0  0 
  2  9  1  0  0  0  0 
  3  5  2  0  0  0  0 
  4  3  2  0  0  0  0 
  6  1  1  0  0  0  0 
  8  1  1  0  0  0  0 
 10  2  1  0  0  0  0 
M  END 
>  <HBA> 
0 
 
>  <HBD> 
0 
 
>  <TPSA> 
45.82 
 
>  <cid> 
6587 
 
>  <dipole> 
3.68 
 
>  <excitation_energy_1> 
4.093 
 
>  <excitation_energy_2> 
4.422 
 
>  <excitation_energy_3> 
6.798 
 
>  <excitation_energy_4> 
7.415 
 
>  <homo_energy> 
-7.916 
 
>  <homo_lumo_gap> 
6.114 
 
>  <logP> 
0.806 
 
>  <lumo_energy> 
-1.801 
 
>  <melting_point> 
6.85 
 
>  <molecular_refractivity> 
19.83 
 
>  <oscillator_strength_1> 
0.0 
 
>  <oscillator_strength_2> 
0.0002 
 
>  <oscillator_strength_3> 
0.1341 
 
>  <oscillator_strength_4> 
0.0257 
 
>  <open_babel_can_smiles> 
CCN(=O)=O 
 
>  <mulliken_charges> 
10 
1   -0.460534 
2   -0.154185 
3   0.452215 
4   -0.375476 
5   -0.37553 
6   0.171768 
7   0.182441 
8   0.182308 
9   0.188501 
10   0.188491 
 
>  <lowdin_charges> 
10 
1   -0.441581 
2   -0.216956 
3   0.296653 
4   -0.246818 
5   -0.246325 
6   0.167803 
7   0.16913 
8   0.169435 
9   0.174557 
10   0.174102 
 
$$$$ 
 
