PCCDB-ID:  8479 
public computational chemistry database (PCCDB) project, http://pccdb.org 
 
 18 18  0  0  0  0  0  0  0  0999 V2000 
   -0.7606    1.1673    0.0437 C   0  0  0  0  0  0  0  0  0  0  0  0 
    1.4186    0.1013   -0.0395 C   0  0  0  0  0  0  0  0  0  0  0  0 
   -1.3721   -0.0776    0.0098 C   0  0  0  0  0  0  0  0  0  0  0  0 
    0.8093   -1.1439   -0.0767 C   0  0  0  0  0  0  0  0  0  0  0  0 
    0.6442    1.2785    0.0162 C   0  0  0  0  0  0  0  0  0  0  0  0 
   -0.5863   -1.2323   -0.0550 C   0  0  0  0  0  0  0  0  0  0  0  0 
    1.2539    2.5174    0.1017 N   0  0  0  0  0  0  0  0  0  0  0  0 
   -1.5075   -3.0446   -1.7526 O   0  0  0  0  0  0  0  0  0  0  0  0 
   -0.4361   -3.8551    0.3443 O   0  0  0  0  0  0  0  0  0  0  0  0 
   -2.7113   -2.7106    0.4309 O   0  0  0  0  0  0  0  0  0  0  0  0 
   -1.3650   -2.8201   -0.1178 S   0  0  0  0  0  0  0  0  0  0  0  0 
   -1.3684    2.0668    0.1009 H   0  0  0  0  0  0  0  0  0  0  0  0 
    2.5032    0.1737   -0.0443 H   0  0  0  0  0  0  0  0  0  0  0  0 
   -2.4530   -0.1619    0.0419 H   0  0  0  0  0  0  0  0  0  0  0  0 
    1.4077   -2.0483   -0.1080 H   0  0  0  0  0  0  0  0  0  0  0  0 
    0.6960    3.3197   -0.1576 H   0  0  0  0  0  0  0  0  0  0  0  0 
    2.2116    2.5780   -0.2167 H   0  0  0  0  0  0  0  0  0  0  0  0 
   -1.1794   -3.9477   -1.9249 H   0  0  0  0  0  0  0  0  0  0  0  0 
  1 12  1  0  0  0  0 
  2  5  2  0  0  0  0 
  3 14  1  0  0  0  0 
  3  1  2  0  0  0  0 
  4  6  2  0  0  0  0 
  4  2  1  0  0  0  0 
  5  1  1  0  0  0  0 
  5  7  1  0  0  0  0 
  6  3  1  0  0  0  0 
  8 11  1  0  0  0  0 
 11  6  1  0  0  0  0 
 11  9  1  0  0  0  0 
 11 10  1  0  0  0  0 
 13  2  1  0  0  0  0 
 15  4  1  0  0  0  0 
 16  7  1  0  0  0  0 
 17  7  1  0  0  0  0 
 18  8  1  0  0  0  0 
M  RAD  2   9   2  10   2 
M  END 
>  <HBA> 
4 
 
>  <HBD> 
2 
 
>  <TPSA> 
88.77 
 
>  <cid> 
8479 
 
>  <dipole> 
6.47 
 
>  <excitation_energy_1> 
4.751 
 
>  <excitation_energy_2> 
5.022 
 
>  <excitation_energy_3> 
5.156 
 
>  <excitation_energy_4> 
5.72 
 
>  <homo_energy> 
-6.196 
 
>  <homo_lumo_gap> 
5.445 
 
>  <logP> 
2.178 
 
>  <lumo_energy> 
-0.751 
 
>  <melting_point> 
138.97 
 
>  <molecular_refractivity> 
40.71 
 
>  <oscillator_strength_1> 
0.0162 
 
>  <oscillator_strength_2> 
0.2926 
 
>  <oscillator_strength_3> 
0.0485 
 
>  <oscillator_strength_4> 
0.0024 
 
>  <open_babel_can_smiles> 
Nc1ccc(cc1)S(O)([O])[O] 
 
>  <mulliken_charges> 
18 
1   -0.169298 
2   -0.169151 
3   -0.139329 
4   -0.141973 
5   0.336644 
6   -0.160814 
7   -0.789943 
8   -0.640916 
9   -0.537404 
10   -0.494256 
11   1.181559 
12   0.134297 
13   0.133365 
14   0.18152 
15   0.17538 
16   0.332882 
17   0.332487 
18   0.434952 
 
>  <lowdin_charges> 
18 
1   -0.195897 
2   -0.193026 
3   -0.1161 
4   -0.121061 
5   0.081135 
6   -0.216848 
7   -0.469176 
8   -0.591429 
9   -0.592142 
10   -0.56255 
11   1.345472 
12   0.161987 
13   0.159012 
14   0.183506 
15   0.182526 
16   0.284895 
17   0.282857 
18   0.376838 
 
$$$$ 
 
