PCCDB-ID:  70267 
public computational chemistry database (PCCDB) project, http://pccdb.org 
 
 18 18  0  0  0  0  0  0  0  0999 V2000 
   -1.4006   -0.1645    0.0357 C   0  0  0  0  0  0  0  0  0  0  0  0 
   -0.6089   -1.3110    0.0578 C   0  0  0  0  0  0  0  0  0  0  0  0 
   -0.7840    1.0868   -0.0443 C   0  0  0  0  0  0  0  0  0  0  0  0 
    0.7810   -1.2025   -0.0039 C   0  0  0  0  0  0  0  0  0  0  0  0 
    1.2501    2.5929   -0.1335 C   0  0  0  0  0  0  0  0  0  0  0  0 
    0.6048    1.2265   -0.0970 C   0  0  0  0  0  0  0  0  0  0  0  0 
    1.3860    0.0556   -0.0789 C   0  0  0  0  0  0  0  0  0  0  0  0 
    1.6959    2.9906    1.2133 N   0  0  0  0  0  0  0  0  0  0  0  0 
    2.7432    0.2016   -0.1593 O   0  0  0  0  0  0  0  0  0  0  0  0 
   -2.4833   -0.2405    0.0750 H   0  0  0  0  0  0  0  0  0  0  0  0 
   -1.0662   -2.2951    0.1164 H   0  0  0  0  0  0  0  0  0  0  0  0 
   -1.3959    1.9866   -0.0700 H   0  0  0  0  0  0  0  0  0  0  0  0 
    1.4015   -2.0976    0.0051 H   0  0  0  0  0  0  0  0  0  0  0  0 
    0.5386    3.3003   -0.5959 H   0  0  0  0  0  0  0  0  0  0  0  0 
    2.1380    2.5636   -0.7736 H   0  0  0  0  0  0  0  0  0  0  0  0 
    0.8811    3.0949    1.8172 H   0  0  0  0  0  0  0  0  0  0  0  0 
    2.1369    3.9088    1.1653 H   0  0  0  0  0  0  0  0  0  0  0  0 
    3.1531   -0.6769   -0.1418 H   0  0  0  0  0  0  0  0  0  0  0  0 
  1  2  1  0  0  0  0 
  1 10  1  0  0  0  0 
  2 11  1  0  0  0  0 
  3  1  2  0  0  0  0 
  4 13  1  0  0  0  0 
  4  2  2  0  0  0  0 
  5  6  1  0  0  0  0 
  5  8  1  0  0  0  0 
  6  7  2  0  0  0  0 
  6  3  1  0  0  0  0 
  7  4  1  0  0  0  0 
  8 16  1  0  0  0  0 
  9 18  1  0  0  0  0 
  9  7  1  0  0  0  0 
 12  3  1  0  0  0  0 
 14  5  1  0  0  0  0 
 15  5  1  0  0  0  0 
 17  8  1  0  0  0  0 
M  END 
>  <HBA> 
2 
 
>  <HBD> 
2 
 
>  <TPSA> 
46.25 
 
>  <cid> 
70267 
 
>  <dipole> 
0.59 
 
>  <excitation_energy_1> 
4.978 
 
>  <excitation_energy_2> 
5.212 
 
>  <excitation_energy_3> 
5.221 
 
>  <excitation_energy_4> 
5.576 
 
>  <homo_energy> 
-5.826 
 
>  <homo_lumo_gap> 
5.886 
 
>  <logP> 
1.551 
 
>  <lumo_energy> 
0.06 
 
>  <melting_point> 
102.37 
 
>  <molecular_refractivity> 
36.14 
 
>  <oscillator_strength_1> 
0.052 
 
>  <oscillator_strength_2> 
0.0003 
 
>  <oscillator_strength_3> 
0.0017 
 
>  <oscillator_strength_4> 
0.0144 
 
>  <open_babel_can_smiles> 
NCc1ccccc1O 
 
>  <mulliken_charges> 
18 
1   -0.131551 
2   -0.135319 
3   -0.194572 
4   -0.191039 
5   -0.211211 
6   0.132219 
7   0.313916 
8   -0.698101 
9   -0.636316 
10   0.123457 
11   0.128152 
12   0.120309 
13   0.114755 
14   0.115195 
15   0.160598 
16   0.290793 
17   0.292335 
18   0.40638 
 
>  <lowdin_charges> 
18 
1   -0.179439 
2   -0.146848 
3   -0.158367 
4   -0.216173 
5   -0.202015 
6   -0.037212 
7   0.107725 
8   -0.551828 
9   -0.372113 
10   0.154172 
11   0.157188 
12   0.154026 
13   0.151996 
14   0.122998 
15   0.157426 
16   0.251078 
17   0.251082 
18   0.356304 
 
$$$$ 
 
