PCCDB-ID:  12802 
public computational chemistry database (PCCDB) project, http://pccdb.org 
 
 21 22  0  0  0  0  0  0  0  0999 V2000 
    1.9943   -1.6645   -0.0693 C   0  0  0  0  0  0  0  0  0  0  0  0 
    4.9321   -2.2581    3.5684 C   0  0  0  0  0  0  0  0  0  0  0  0 
    5.4956   -1.2958    4.4277 C   0  0  0  0  0  0  0  0  0  0  0  0 
    4.0754   -1.8952    2.5355 C   0  0  0  0  0  0  0  0  0  0  0  0 
    5.2095    0.0548    4.2679 C   0  0  0  0  0  0  0  0  0  0  0  0 
    3.0679    1.5474    1.7696 C   0  0  0  0  0  0  0  0  0  0  0  0 
    2.0955   -0.1884    0.2763 C   0  0  0  0  0  0  0  0  0  0  0  0 
    3.7642   -0.5367    2.3420 C   0  0  0  0  0  0  0  0  0  0  0  0 
    2.9427    0.2181    1.4114 C   0  0  0  0  0  0  0  0  0  0  0  0 
    4.3489    0.4110    3.2273 C   0  0  0  0  0  0  0  0  0  0  0  0 
    3.8986    1.6663    2.8449 N   0  0  0  0  0  0  0  0  0  0  0  0 
    1.4818    0.6479   -0.3788 O   0  0  0  0  0  0  0  0  0  0  0  0 
    2.9805   -2.0755   -0.3178 H   0  0  0  0  0  0  0  0  0  0  0  0 
    1.3259   -1.7832   -0.9242 H   0  0  0  0  0  0  0  0  0  0  0  0 
    1.6058   -2.2388    0.7806 H   0  0  0  0  0  0  0  0  0  0  0  0 
    5.1722   -3.3073    3.7169 H   0  0  0  0  0  0  0  0  0  0  0  0 
    6.1613   -1.6121    5.2256 H   0  0  0  0  0  0  0  0  0  0  0  0 
    3.6562   -2.6601    1.8910 H   0  0  0  0  0  0  0  0  0  0  0  0 
    5.6383    0.8050    4.9272 H   0  0  0  0  0  0  0  0  0  0  0  0 
    2.6026    2.4060    1.3077 H   0  0  0  0  0  0  0  0  0  0  0  0 
    4.1532    2.5356    3.2894 H   0  0  0  0  0  0  0  0  0  0  0  0 
  1  7  1  0  0  0  0 
  1 15  1  0  0  0  0 
  2 16  1  0  0  0  0 
  2  3  2  0  0  0  0 
  3 17  1  0  0  0  0 
  4  2  1  0  0  0  0 
  5  3  1  0  0  0  0 
  5 19  1  0  0  0  0 
  6 11  1  0  0  0  0 
  7  9  1  0  0  0  0 
  8  4  2  0  0  0  0 
  8 10  1  0  0  0  0 
  9  6  2  0  0  0  0 
  9  8  1  0  0  0  0 
 10  5  2  0  0  0  0 
 11 10  1  0  0  0  0 
 11 21  1  0  0  0  0 
 12  7  2  0  0  0  0 
 13  1  1  0  0  0  0 
 14  1  1  0  0  0  0 
 18  4  1  0  0  0  0 
 20  6  1  0  0  0  0 
M  END 
>  <HBA> 
1 
 
>  <HBD> 
1 
 
>  <TPSA> 
32.86 
 
>  <cid> 
12802 
 
>  <dipole> 
3.62 
 
>  <excitation_energy_1> 
3.976 
 
>  <excitation_energy_2> 
4.402 
 
>  <excitation_energy_3> 
4.63 
 
>  <excitation_energy_4> 
5.057 
 
>  <homo_energy> 
-5.81 
 
>  <homo_lumo_gap> 
4.887 
 
>  <logP> 
2.37 
 
>  <lumo_energy> 
-0.922 
 
>  <melting_point> 
130.82 
 
>  <molecular_refractivity> 
48.49 
 
>  <oscillator_strength_1> 
0.0001 
 
>  <oscillator_strength_2> 
0.138 
 
>  <oscillator_strength_3> 
0.0224 
 
>  <oscillator_strength_4> 
0.0013 
 
>  <open_babel_can_smiles> 
CC(=O)c1c[nH]c2c1cccc2 
 
>  <mulliken_charges> 
21 
1   -0.544089 
2   -0.137694 
3   -0.149392 
4   -0.211397 
5   -0.160305 
6   0.053591 
7   0.411521 
8   0.068443 
9   -0.02395 
10   0.311601 
11   -0.681915 
12   -0.483602 
13   0.169335 
14   0.174886 
15   0.169171 
16   0.126824 
17   0.128903 
18   0.130785 
19   0.127243 
20   0.184706 
21   0.335336 
 
>  <lowdin_charges> 
21 
1   -0.475835 
2   -0.167124 
3   -0.161053 
4   -0.16679 
5   -0.184494 
6   -0.078417 
7   0.163004 
8   -0.024482 
9   -0.112244 
10   0.031469 
11   -0.177174 
12   -0.273371 
13   0.167721 
14   0.171844 
15   0.168624 
16   0.156374 
17   0.159372 
18   0.161328 
19   0.159486 
20   0.185333 
21   0.296428 
 
$$$$ 
 
