PCCDB-ID:  21957 
public computational chemistry database (PCCDB) project, http://pccdb.org 
 
 22 23  0  0  0  0  0  0  0  0999 V2000 
    2.2325    0.8558    0.0072 C   0  0  0  0  0  0  0  0  0  0  0  0 
    2.3132   -0.6380    0.3710 C   0  0  0  0  0  0  0  0  0  0  0  0 
    0.7143    1.1766   -0.0508 C   0  0  0  0  0  0  0  0  0  0  0  0 
    1.1013   -1.2325   -0.3589 C   0  0  0  0  0  0  0  0  0  0  0  0 
   -0.8919   -0.4521    1.1202 C   0  0  0  0  0  0  0  0  0  0  0  0 
   -1.1264   -0.2424   -1.2121 C   0  0  0  0  0  0  0  0  0  0  0  0 
   -2.2376    0.1714    0.7609 C   0  0  0  0  0  0  0  0  0  0  0  0 
   -0.0278   -0.2034   -0.1328 C   0  0  0  0  0  0  0  0  0  0  0  0 
   -3.1287    0.5150    1.4915 O   0  0  0  0  0  0  0  0  0  0  0  0 
   -2.3169    0.2893   -0.5983 O   0  0  0  0  0  0  0  0  0  0  0  0 
    2.6862    1.0139   -0.9791 H   0  0  0  0  0  0  0  0  0  0  0  0 
    2.7715    1.4974    0.7118 H   0  0  0  0  0  0  0  0  0  0  0  0 
    2.2044   -0.7761    1.4549 H   0  0  0  0  0  0  0  0  0  0  0  0 
    3.2617   -1.0998    0.0770 H   0  0  0  0  0  0  0  0  0  0  0  0 
    0.4763    1.8092   -0.9129 H   0  0  0  0  0  0  0  0  0  0  0  0 
    0.3946    1.7335    0.8365 H   0  0  0  0  0  0  0  0  0  0  0  0 
    0.8272   -2.2381   -0.0206 H   0  0  0  0  0  0  0  0  0  0  0  0 
    1.3243   -1.3013   -1.4340 H   0  0  0  0  0  0  0  0  0  0  0  0 
   -1.0566   -1.5255    1.2900 H   0  0  0  0  0  0  0  0  0  0  0  0 
   -0.5081   -0.0243    2.0488 H   0  0  0  0  0  0  0  0  0  0  0  0 
   -1.3341   -1.2694   -1.5419 H   0  0  0  0  0  0  0  0  0  0  0  0 
   -0.9019    0.3706   -2.0890 H   0  0  0  0  0  0  0  0  0  0  0  0 
  1  2  1  0  0  0  0 
  1 12  1  0  0  0  0 
  2 13  1  0  0  0  0 
  3  1  1  0  0  0  0 
  3 16  1  0  0  0  0 
  4  8  1  0  0  0  0 
  4 17  1  0  0  0  0 
  4  2  1  0  0  0  0 
  5 19  1  0  0  0  0 
  5 20  1  0  0  0  0 
  6 10  1  0  0  0  0 
  6  8  1  0  0  0  0 
  7  5  1  0  0  0  0 
  7  9  2  0  0  0  0 
  8  3  1  0  0  0  0 
  8  5  1  0  0  0  0 
 10  7  1  0  0  0  0 
 11  1  1  0  0  0  0 
 14  2  1  0  0  0  0 
 15  3  1  0  0  0  0 
 18  4  1  0  0  0  0 
 21  6  1  0  0  0  0 
 22  6  1  0  0  0  0 
M  END 
>  <HBA> 
2 
 
>  <HBD> 
0 
 
>  <TPSA> 
26.3 
 
>  <cid> 
21957 
 
>  <dipole> 
4.77 
 
>  <excitation_energy_1> 
5.616 
 
>  <excitation_energy_2> 
6.643 
 
>  <excitation_energy_3> 
7.06 
 
>  <excitation_energy_4> 
7.152 
 
>  <homo_energy> 
-7.116 
 
>  <homo_lumo_gap> 
7.461 
 
>  <logP> 
1.494 
 
>  <lumo_energy> 
0.346 
 
>  <melting_point> 
48.39 
 
>  <molecular_refractivity> 
37.37 
 
>  <oscillator_strength_1> 
0.001 
 
>  <oscillator_strength_2> 
0.0077 
 
>  <oscillator_strength_3> 
0.0133 
 
>  <oscillator_strength_4> 
0.001 
 
>  <open_babel_can_smiles> 
O=C1OCC2(C1)CCCC2 
 
>  <mulliken_charges> 
22 
1   -0.273494 
2   -0.270644 
3   -0.293198 
4   -0.291835 
5   -0.401663 
6   -0.05205 
7   0.615957 
8   0.070087 
9   -0.4571 
10   -0.447237 
11   0.140326 
12   0.143738 
13   0.140902 
14   0.141635 
15   0.145769 
16   0.151757 
17   0.139027 
18   0.136988 
19   0.174374 
20   0.180118 
21   0.149 
22   0.157543 
 
>  <lowdin_charges> 
22 
1   -0.28222 
2   -0.27817 
3   -0.288041 
4   -0.277373 
5   -0.315079 
6   -0.131096 
7   0.195823 
8   -0.009734 
9   -0.236196 
10   -0.194388 
11   0.143914 
12   0.151218 
13   0.141158 
14   0.14903 
15   0.150802 
16   0.152033 
17   0.146742 
18   0.141665 
19   0.168921 
20   0.172363 
21   0.143171 
22   0.155458 
 
$$$$ 
 
