PCCDB-ID:  14234 
public computational chemistry database (PCCDB) project, http://pccdb.org 
 
 43 42  0  0  1  0  0  0  0  0999 V2000 
    1.5845    1.2838   -1.0252 C   0  0  0  0  0  0  0  0  0  0  0  0 
   -0.4199    0.0698    5.0444 C   0  0  0  0  0  0  0  0  0  0  0  0 
   -0.2605    2.6028    4.9915 C   0  0  0  0  0  0  0  0  0  0  0  0 
    8.1680    1.5840    2.9607 C   0  0  0  0  0  0  0  0  0  0  0  0 
    6.1559    2.2147    4.3608 C   0  0  0  0  0  0  0  0  0  0  0  0 
    2.9890   -1.6279    1.7656 C   0  0  0  0  0  0  0  0  0  0  0  0 
    2.4850    0.6249   -0.2962 C   0  0  0  0  0  0  0  0  0  0  0  0 
    1.5690    1.2446    4.0097 C   0  0  0  0  0  0  0  0  0  0  0  0 
    2.3485    0.0262    3.5820 C   0  0  0  0  0  0  0  0  0  0  0  0 
    6.0572    2.3647    1.8148 C   0  0  0  0  0  0  0  0  0  0  0  0 
    0.3818    1.2822    4.6368 C   0  0  0  0  0  0  0  0  0  0  0  0 
    6.6350    1.6064    3.0351 C   0  0  0  0  0  0  0  0  0  0  0  0 
    2.2442   -0.3197    2.0722 C   0  0  1  0  0  0  0  0  0  0  0  0 
    2.6938    0.8546    1.1762 C   0  0  1  0  0  0  0  0  0  0  0  0 
    4.5446    2.3126    1.7332 C   0  0  0  0  0  0  0  0  0  0  0  0 
    3.8037    3.2442    1.9687 O   0  0  0  0  0  0  0  0  0  0  0  0 
    4.1265    1.0713    1.3814 O   0  0  0  0  0  0  0  0  0  0  0  0 
    1.4432    1.0774   -2.0828 H   0  0  0  0  0  0  0  0  0  0  0  0 
    0.9512    2.0549   -0.5916 H   0  0  0  0  0  0  0  0  0  0  0  0 
   -0.6123    0.0763    6.1265 H   0  0  0  0  0  0  0  0  0  0  0  0 
    0.0666   -0.8765    4.7960 H   0  0  0  0  0  0  0  0  0  0  0  0 
   -1.4047    0.0767    4.5565 H   0  0  0  0  0  0  0  0  0  0  0  0 
   -0.4162    2.6887    6.0765 H   0  0  0  0  0  0  0  0  0  0  0  0 
   -1.2530    2.6982    4.5285 H   0  0  0  0  0  0  0  0  0  0  0  0 
    0.3484    3.4523    4.6674 H   0  0  0  0  0  0  0  0  0  0  0  0 
    8.5921    1.0269    3.8042 H   0  0  0  0  0  0  0  0  0  0  0  0 
    8.5782    2.6015    2.9950 H   0  0  0  0  0  0  0  0  0  0  0  0 
    8.5187    1.1120    2.0354 H   0  0  0  0  0  0  0  0  0  0  0  0 
    6.5481    1.6469    5.2125 H   0  0  0  0  0  0  0  0  0  0  0  0 
    5.0633    2.2247    4.4383 H   0  0  0  0  0  0  0  0  0  0  0  0 
    6.5021    3.2512    4.4620 H   0  0  0  0  0  0  0  0  0  0  0  0 
    2.6300   -2.4334    2.4162 H   0  0  0  0  0  0  0  0  0  0  0  0 
    4.0658   -1.5155    1.9319 H   0  0  0  0  0  0  0  0  0  0  0  0 
    2.8381   -1.9506    0.7299 H   0  0  0  0  0  0  0  0  0  0  0  0 
    3.1161   -0.1313   -0.7605 H   0  0  0  0  0  0  0  0  0  0  0  0 
    2.0347    2.1998    3.7673 H   0  0  0  0  0  0  0  0  0  0  0  0 
    2.0293   -0.8587    4.1439 H   0  0  0  0  0  0  0  0  0  0  0  0 
    3.4096    0.1726    3.8278 H   0  0  0  0  0  0  0  0  0  0  0  0 
    6.4680    1.9320    0.8949 H   0  0  0  0  0  0  0  0  0  0  0  0 
    6.3437    3.4204    1.8593 H   0  0  0  0  0  0  0  0  0  0  0  0 
    6.2751    0.5703    2.9769 H   0  0  0  0  0  0  0  0  0  0  0  0 
    1.1791   -0.4614    1.8409 H   0  0  0  0  0  0  0  0  0  0  0  0 
    2.1723    1.7636    1.4798 H   0  0  0  0  0  0  0  0  0  0  0  0 
  1 19  1  0  0  0  0 
  1  7  2  0  0  0  0 
  2 20  1  0  0  0  0 
  3 23  1  0  0  0  0 
  4 27  1  0  0  0  0 
  4 12  1  0  0  0  0 
  4 26  1  0  0  0  0 
  5 30  1  0  0  0  0 
  5 31  1  0  0  0  0 
  5 29  1  0  0  0  0 
  6 33  1  0  0  0  0 
  6 13  1  0  0  0  0 
  6 32  1  0  0  0  0 
  7 14  1  0  0  0  0 
  8 11  2  0  0  0  0 
  9 38  1  0  0  0  0 
  9  8  1  0  0  0  0 
  9 37  1  0  0  0  0 
 10 40  1  0  0  0  0 
 10 12  1  0  0  0  0 
 11  3  1  0  0  0  0 
 11  2  1  0  0  0  0 
 12  5  1  0  0  0  0 
 13 42  1  6  0  0  0 
 13  9  1  0  0  0  0 
 14 17  1  0  0  0  0 
 14 43  1  1  0  0  0 
 14 13  1  0  0  0  0 
 15 10  1  0  0  0  0 
 15 16  2  0  0  0  0 
 17 15  1  0  0  0  0 
 18  1  1  0  0  0  0 
 21  2  1  0  0  0  0 
 22  2  1  0  0  0  0 
 24  3  1  0  0  0  0 
 25  3  1  0  0  0  0 
 28  4  1  0  0  0  0 
 34  6  1  0  0  0  0 
 35  7  1  0  0  0  0 
 36  8  1  0  0  0  0 
 39 10  1  0  0  0  0 
 41 12  1  0  0  0  0 
M  END 
>  <HBA> 
2 
 
>  <HBD> 
0 
 
>  <TPSA> 
26.3 
 
>  <cid> 
14234 
 
>  <dipole> 
1.82 
 
>  <excitation_energy_1> 
5.437 
 
>  <excitation_energy_2> 
5.652 
 
>  <excitation_energy_3> 
5.695 
 
>  <excitation_energy_4> 
5.832 
 
>  <homo_energy> 
-6.15 
 
>  <homo_lumo_gap> 
6.278 
 
>  <logP> 
4.123 
 
>  <lumo_energy> 
0.128 
 
>  <melting_point> 
-27.49 
 
>  <molecular_refractivity> 
74.56 
 
>  <oscillator_strength_1> 
0.0105 
 
>  <oscillator_strength_2> 
0.0018 
 
>  <oscillator_strength_3> 
0.0042 
 
>  <oscillator_strength_4> 
0.0084 
 
>  <open_babel_can_smiles> 
C=C[C@@H]([C@H](CC=C(C)C)C)OC(=O)CC(C)C 
 
>  <mulliken_charges> 
43 
1   -0.338565 
2   -0.512258 
3   -0.506943 
4   -0.442421 
5   -0.452454 
6   -0.462012 
7   -0.052505 
8   -0.193605 
9   -0.319342 
10   -0.32602 
11   0.187052 
12   -0.086033 
13   -0.082283 
14   0.055323 
15   0.614577 
16   -0.479049 
17   -0.481171 
18   0.144867 
19   0.149965 
20   0.151519 
21   0.151289 
22   0.152071 
23   0.14762 
24   0.146842 
25   0.159094 
26   0.145501 
27   0.143504 
28   0.142673 
29   0.142952 
30   0.162826 
31   0.145453 
32   0.142564 
33   0.157478 
34   0.14523 
35   0.138113 
36   0.14536 
37   0.13744 
38   0.145074 
39   0.157425 
40   0.160794 
41   0.144002 
42   0.137073 
43   0.180977 
 
>  <lowdin_charges> 
43 
1   -0.32289 
2   -0.443181 
3   -0.437858 
4   -0.444329 
5   -0.446181 
6   -0.448473 
7   -0.156858 
8   -0.204195 
9   -0.278606 
10   -0.295705 
11   -0.007892 
12   -0.114556 
13   -0.125674 
14   0.000712 
15   0.202429 
16   -0.270664 
17   -0.200911 
18   0.159949 
19   0.161864 
20   0.153108 
21   0.153898 
22   0.154912 
23   0.150039 
24   0.15081 
25   0.158909 
26   0.152228 
27   0.147194 
28   0.149159 
29   0.151102 
30   0.154263 
31   0.148772 
32   0.151184 
33   0.151853 
34   0.149335 
35   0.157883 
36   0.157957 
37   0.148637 
38   0.14717 
39   0.164056 
40   0.161534 
41   0.142625 
42   0.147265 
43   0.169126 
 
$$$$ 
 
