PCCDB-ID:  20072 
public computational chemistry database (PCCDB) project, http://pccdb.org 
 
 31 33  0  0  0  0  0  0  0  0999 V2000 
    1.8204   -1.7475    0.0724 C   0  0  0  0  0  0  0  0  0  0  0  0 
   -1.3415    0.2947    8.4954 C   0  0  0  0  0  0  0  0  0  0  0  0 
   -1.0342    1.4618    7.7709 C   0  0  0  0  0  0  0  0  0  0  0  0 
   -0.8766   -0.9256    8.0464 C   0  0  0  0  0  0  0  0  0  0  0  0 
   -0.2732    1.3912    6.6181 C   0  0  0  0  0  0  0  0  0  0  0  0 
    0.3835   -2.2953    6.4128 C   0  0  0  0  0  0  0  0  0  0  0  0 
    1.1318   -2.4022    5.2821 C   0  0  0  0  0  0  0  0  0  0  0  0 
    2.1592    1.0098    2.9895 C   0  0  0  0  0  0  0  0  0  0  0  0 
    1.3941    1.1522    4.1280 C   0  0  0  0  0  0  0  0  0  0  0  0 
    2.2396   -1.3752    3.3239 C   0  0  0  0  0  0  0  0  0  0  0  0 
    3.1066   -1.0159    0.3899 C   0  0  0  0  0  0  0  0  0  0  0  0 
   -0.0967   -1.0233    6.8708 C   0  0  0  0  0  0  0  0  0  0  0  0 
    1.4701   -1.2454    4.5019 C   0  0  0  0  0  0  0  0  0  0  0  0 
    2.5830   -0.2700    2.5540 C   0  0  0  0  0  0  0  0  0  0  0  0 
    0.2184    0.1567    6.1312 C   0  0  0  0  0  0  0  0  0  0  0  0 
    1.0204    0.0410    4.9222 C   0  0  0  0  0  0  0  0  0  0  0  0 
    3.4102   -0.3518    1.4272 N   0  0  0  0  0  0  0  0  0  0  0  0 
    4.0502   -1.0595   -0.5941 O   0  0  0  0  0  0  0  0  0  0  0  0 
    1.0799   -1.6059    0.8601 H   0  0  0  0  0  0  0  0  0  0  0  0 
    2.0045   -2.8230   -0.0419 H   0  0  0  0  0  0  0  0  0  0  0  0 
    1.4051   -1.3789   -0.8745 H   0  0  0  0  0  0  0  0  0  0  0  0 
   -1.9396    0.3555    9.4005 H   0  0  0  0  0  0  0  0  0  0  0  0 
   -1.3959    2.4260    8.1182 H   0  0  0  0  0  0  0  0  0  0  0  0 
   -1.1052   -1.8364    8.5953 H   0  0  0  0  0  0  0  0  0  0  0  0 
   -0.0546    2.3090    6.0826 H   0  0  0  0  0  0  0  0  0  0  0  0 
    0.1350   -3.1798    6.9947 H   0  0  0  0  0  0  0  0  0  0  0  0 
    1.4909   -3.3728    4.9483 H   0  0  0  0  0  0  0  0  0  0  0  0 
    2.4481    1.8772    2.4039 H   0  0  0  0  0  0  0  0  0  0  0  0 
    1.0849    2.1514    4.4158 H   0  0  0  0  0  0  0  0  0  0  0  0 
    2.5950   -2.3611    3.0341 H   0  0  0  0  0  0  0  0  0  0  0  0 
    3.6969   -1.5463   -1.3545 H   0  0  0  0  0  0  0  0  0  0  0  0 
  1 11  1  0  0  0  0 
  1 19  1  0  0  0  0 
  2 22  1  0  0  0  0 
  3 23  1  0  0  0  0 
  3  2  2  0  0  0  0 
  4  2  1  0  0  0  0 
  4 24  1  0  0  0  0 
  5  3  1  0  0  0  0 
  6 12  1  0  0  0  0 
  6 26  1  0  0  0  0 
  7  6  2  0  0  0  0 
  8  9  1  0  0  0  0 
  9 29  1  0  0  0  0 
  9 16  2  0  0  0  0 
 10 13  2  0  0  0  0 
 11 17  2  0  0  0  0 
 12  4  2  0  0  0  0 
 13 16  1  0  0  0  0 
 13  7  1  0  0  0  0 
 14  8  2  0  0  0  0 
 14 10  1  0  0  0  0 
 15  5  2  0  0  0  0 
 15 12  1  0  0  0  0 
 16 15  1  0  0  0  0 
 17 14  1  0  0  0  0 
 18 11  1  0  0  0  0 
 20  1  1  0  0  0  0 
 21  1  1  0  0  0  0 
 25  5  1  0  0  0  0 
 27  7  1  0  0  0  0 
 28  8  1  0  0  0  0 
 30 10  1  0  0  0  0 
 31 18  1  0  0  0  0 
M  END 
>  <HBA> 
2 
 
>  <HBD> 
1 
 
>  <TPSA> 
29.1 
 
>  <cid> 
20072 
 
>  <dipole> 
3.79 
 
>  <excitation_energy_1> 
3.798 
 
>  <excitation_energy_2> 
4.08 
 
>  <excitation_energy_3> 
4.492 
 
>  <excitation_energy_4> 
4.551 
 
>  <homo_energy> 
-5.521 
 
>  <homo_lumo_gap> 
4.601 
 
>  <logP> 
4.024 
 
>  <lumo_energy> 
-0.92 
 
>  <melting_point> 
149.27 
 
>  <molecular_refractivity> 
75.77 
 
>  <oscillator_strength_1> 
0.0034 
 
>  <oscillator_strength_2> 
0.0136 
 
>  <oscillator_strength_3> 
0.1058 
 
>  <oscillator_strength_4> 
1.0313 
 
>  <open_babel_can_smiles> 
C/C(=N\c1ccc2c(c1)ccc1c2cccc1)/O 
 
>  <mulliken_charges> 
31 
1   -0.55512 
2   -0.12934 
3   -0.139085 
4   -0.207358 
5   -0.187547 
6   -0.195016 
7   -0.194542 
8   -0.157697 
9   -0.197958 
10   -0.258941 
11   0.482399 
12   0.142606 
13   0.146464 
14   0.253977 
15   0.058185 
16   0.060429 
17   -0.469234 
18   -0.568294 
19   0.200129 
20   0.177344 
21   0.170422 
22   0.127815 
23   0.127655 
24   0.127351 
25   0.131637 
26   0.127683 
27   0.126018 
28   0.134297 
29   0.134273 
30   0.122929 
31   0.408521 
 
>  <lowdin_charges> 
31 
1   -0.482493 
2   -0.15969 
3   -0.157421 
4   -0.158165 
5   -0.160402 
6   -0.158695 
7   -0.161327 
8   -0.170027 
9   -0.151988 
10   -0.195683 
11   0.147247 
12   -0.004107 
13   0.003208 
14   0.049335 
15   -3.3e-05 
16   -0.013974 
17   -0.169901 
18   -0.359065 
19   0.185692 
20   0.169421 
21   0.167638 
22   0.157633 
23   0.157387 
24   0.156592 
25   0.157606 
26   0.158064 
27   0.156448 
28   0.165241 
29   0.158122 
30   0.155475 
31   0.357863 
 
$$$$ 
 
