PCCDB-ID:  70693 
public computational chemistry database (PCCDB) project, http://pccdb.org 
 
 21 20  0  0  0  0  0  0  0  0999 V2000 
    0.7488    0.1175   -0.1637 C   0  0  0  0  0  0  0  0  0  0  0  0 
    2.3484    1.0339    1.5935 C   0  0  0  0  0  0  0  0  0  0  0  0 
    2.6730   -1.2899    0.6637 C   0  0  0  0  0  0  0  0  0  0  0  0 
    4.1139    1.9051   -2.3310 C   0  0  0  0  0  0  0  0  0  0  0  0 
    4.1239    3.2036   -3.0010 C   0  0  0  0  0  0  0  0  0  0  0  0 
    3.0189    1.7850   -1.2597 C   0  0  0  0  0  0  0  0  0  0  0  0 
    2.1840    0.1293    0.3692 C   0  0  0  0  0  0  0  0  0  0  0  0 
    4.1605    4.2226   -3.5529 N   0  0  0  0  0  0  0  0  0  0  0  0 
    2.2268    2.6565   -0.9909 O   0  0  0  0  0  0  0  0  0  0  0  0 
    3.1118    0.5692   -0.7041 O   0  0  0  0  0  0  0  0  0  0  0  0 
    0.0861   -0.3233    0.5892 H   0  0  0  0  0  0  0  0  0  0  0  0 
    0.6824   -0.4923   -1.0714 H   0  0  0  0  0  0  0  0  0  0  0  0 
    0.3981    1.1264   -0.3870 H   0  0  0  0  0  0  0  0  0  0  0  0 
    1.7549    0.6332    2.4228 H   0  0  0  0  0  0  0  0  0  0  0  0 
    2.0117    2.0507    1.3846 H   0  0  0  0  0  0  0  0  0  0  0  0 
    3.3965    1.0631    1.9104 H   0  0  0  0  0  0  0  0  0  0  0  0 
    2.0611   -1.7393    1.4526 H   0  0  0  0  0  0  0  0  0  0  0  0 
    3.7154   -1.2800    0.9978 H   0  0  0  0  0  0  0  0  0  0  0  0 
    2.6015   -1.9183   -0.2298 H   0  0  0  0  0  0  0  0  0  0  0  0 
    5.0878    1.7196   -1.8626 H   0  0  0  0  0  0  0  0  0  0  0  0 
    3.9731    1.1065   -3.0691 H   0  0  0  0  0  0  0  0  0  0  0  0 
  1  7  1  0  0  0  0 
  1 11  1  0  0  0  0 
  2 16  1  0  0  0  0 
  2 14  1  0  0  0  0 
  3 18  1  0  0  0  0 
  3 17  1  0  0  0  0 
  4 20  1  0  0  0  0 
  4  6  1  0  0  0  0 
  5  4  1  0  0  0  0 
  6  9  2  0  0  0  0 
  6 10  1  0  0  0  0 
  7  3  1  0  0  0  0 
  7  2  1  0  0  0  0 
  8  5  3  0  0  0  0 
 10  7  1  0  0  0  0 
 12  1  1  0  0  0  0 
 13  1  1  0  0  0  0 
 15  2  1  0  0  0  0 
 19  3  1  0  0  0  0 
 21  4  1  0  0  0  0 
M  END 
>  <HBA> 
3 
 
>  <HBD> 
0 
 
>  <TPSA> 
50.09 
 
>  <cid> 
70693 
 
>  <dipole> 
5.79 
 
>  <excitation_energy_1> 
5.722 
 
>  <excitation_energy_2> 
6.933 
 
>  <excitation_energy_3> 
7.424 
 
>  <excitation_energy_4> 
7.517 
 
>  <homo_energy> 
-7.772 
 
>  <homo_lumo_gap> 
7.581 
 
>  <logP> 
1.242 
 
>  <lumo_energy> 
-0.19 
 
>  <melting_point> 
30.14 
 
>  <molecular_refractivity> 
36.84 
 
>  <oscillator_strength_1> 
0.0007 
 
>  <oscillator_strength_2> 
0.0097 
 
>  <oscillator_strength_3> 
0.0053 
 
>  <oscillator_strength_4> 
0.001 
 
>  <open_babel_can_smiles> 
N#CCC(=O)OC(C)(C)C 
 
>  <mulliken_charges> 
21 
1   -0.467261 
2   -0.467066 
3   -0.450762 
4   -0.445232 
5   0.387484 
6   0.650441 
7   0.302203 
8   -0.460569 
9   -0.454175 
10   -0.493319 
11   0.150527 
12   0.150622 
13   0.189925 
14   0.150401 
15   0.189906 
16   0.150812 
17   0.152296 
18   0.156487 
19   0.15645 
20   0.225344 
21   0.225487 
 
>  <lowdin_charges> 
21 
1   -0.456595 
2   -0.454714 
3   -0.444271 
4   -0.300644 
5   -0.007877 
6   0.203404 
7   0.146903 
8   -0.107618 
9   -0.242629 
10   -0.195035 
11   0.160365 
12   0.155879 
13   0.173214 
14   0.16003 
15   0.172986 
16   0.154607 
17   0.159428 
18   0.157017 
19   0.158471 
20   0.203041 
21   0.204038 
 
$$$$ 
 
