PCCDB-ID:  29346 
public computational chemistry database (PCCDB) project, http://pccdb.org 
 
 25 25  0  0  0  0  0  0  0  0999 V2000 
   -0.1251    0.8995   -2.7232 C   0  0  0  0  0  0  0  0  0  0  0  0 
    1.1786    0.2249   -2.2671 C   0  0  0  0  0  0  0  0  0  0  0  0 
   -0.9711    1.3503   -1.5219 C   0  0  0  0  0  0  0  0  0  0  0  0 
    0.9011   -0.9453   -1.3104 C   0  0  0  0  0  0  0  0  0  0  0  0 
   -1.2514    0.1837   -0.5610 C   0  0  0  0  0  0  0  0  0  0  0  0 
    2.2162    1.0038    2.4909 C   0  0  0  0  0  0  0  0  0  0  0  0 
    0.0266   -0.5324   -0.1215 C   0  0  0  0  0  0  0  0  0  0  0  0 
    1.5510   -0.0950    1.6797 C   0  0  0  0  0  0  0  0  0  0  0  0 
    1.7248   -1.2781    1.8843 O   0  0  0  0  0  0  0  0  0  0  0  0 
    0.7589    0.4163    0.7216 O   0  0  0  0  0  0  0  0  0  0  0  0 
    1.6940    0.9516    4.2553 S   0  0  0  0  0  0  0  0  0  0  0  0 
   -0.7067    0.1896   -3.3305 H   0  0  0  0  0  0  0  0  0  0  0  0 
    0.0974    1.7555   -3.3726 H   0  0  0  0  0  0  0  0  0  0  0  0 
    1.8124    0.9645   -1.7598 H   0  0  0  0  0  0  0  0  0  0  0  0 
    1.7478   -0.1335   -3.1336 H   0  0  0  0  0  0  0  0  0  0  0  0 
   -1.9194    1.7836   -1.8629 H   0  0  0  0  0  0  0  0  0  0  0  0 
   -0.4407    2.1429   -0.9782 H   0  0  0  0  0  0  0  0  0  0  0  0 
    1.8320   -1.3869   -0.9385 H   0  0  0  0  0  0  0  0  0  0  0  0 
    0.3678   -1.7427   -1.8475 H   0  0  0  0  0  0  0  0  0  0  0  0 
   -1.8892   -0.5603   -1.0588 H   0  0  0  0  0  0  0  0  0  0  0  0 
   -1.7967    0.5292    0.3250 H   0  0  0  0  0  0  0  0  0  0  0  0 
    1.9395    1.9899    2.1158 H   0  0  0  0  0  0  0  0  0  0  0  0 
    3.3011    0.8843    2.4250 H   0  0  0  0  0  0  0  0  0  0  0  0 
   -0.2007   -1.4026    0.4991 H   0  0  0  0  0  0  0  0  0  0  0  0 
    2.0264   -0.3429    4.4461 H   0  0  0  0  0  0  0  0  0  0  0  0 
  1  2  1  0  0  0  0 
  1  3  1  0  0  0  0 
  2 14  1  0  0  0  0 
  2  4  1  0  0  0  0 
  3 17  1  0  0  0  0 
  3  5  1  0  0  0  0 
  4 18  1  0  0  0  0 
  4  7  1  0  0  0  0 
  5  7  1  0  0  0  0 
  5 21  1  0  0  0  0 
  6 11  1  0  0  0  0 
  7 24  1  0  0  0  0 
  7 10  1  0  0  0  0 
  8  9  2  0  0  0  0 
  8  6  1  0  0  0  0 
 10  8  1  0  0  0  0 
 11 25  1  0  0  0  0 
 12  1  1  0  0  0  0 
 13  1  1  0  0  0  0 
 15  2  1  0  0  0  0 
 16  3  1  0  0  0  0 
 19  4  1  0  0  0  0 
 20  5  1  0  0  0  0 
 22  6  1  0  0  0  0 
 23  6  1  0  0  0  0 
M  END 
>  <HBA> 
3 
 
>  <HBD> 
1 
 
>  <TPSA> 
65.1 
 
>  <cid> 
29346 
 
>  <dipole> 
2.41 
 
>  <excitation_energy_1> 
4.887 
 
>  <excitation_energy_2> 
5.57 
 
>  <excitation_energy_3> 
5.717 
 
>  <excitation_energy_4> 
6.272 
 
>  <homo_energy> 
-6.61 
 
>  <homo_lumo_gap> 
6.28 
 
>  <logP> 
1.792 
 
>  <lumo_energy> 
-0.329 
 
>  <melting_point> 
27.39 
 
>  <molecular_refractivity> 
47.67 
 
>  <oscillator_strength_1> 
0.0071 
 
>  <oscillator_strength_2> 
0.0159 
 
>  <oscillator_strength_3> 
0.0071 
 
>  <oscillator_strength_4> 
0.0143 
 
>  <open_babel_can_smiles> 
SCC(=O)OC1CCCCC1 
 
>  <mulliken_charges> 
25 
1   -0.260968 
2   -0.260576 
3   -0.262275 
4   -0.281802 
5   -0.276619 
6   -0.502086 
7   0.111291 
8   0.63584 
9   -0.473152 
10   -0.465544 
11   -0.061598 
12   0.127583 
13   0.134596 
14   0.138898 
15   0.135445 
16   0.134896 
17   0.145603 
18   0.158111 
19   0.137874 
20   0.13819 
21   0.149336 
22   0.203633 
23   0.207048 
24   0.163607 
25   0.12267 
 
>  <lowdin_charges> 
25 
1   -0.280553 
2   -0.282428 
3   -0.281386 
4   -0.2894 
5   -0.285507 
6   -0.393606 
7   0.002033 
8   0.190333 
9   -0.270847 
10   -0.186805 
11   -0.056867 
12   0.138469 
13   0.146386 
14   0.144295 
15   0.147409 
16   0.146404 
17   0.147273 
18   0.158137 
19   0.150007 
20   0.149569 
21   0.154946 
22   0.184095 
23   0.179608 
24   0.159829 
25   0.128605 
 
$$$$ 
 
