PCCDB-ID:  35347 
public computational chemistry database (PCCDB) project, http://pccdb.org 
 
 31 33  0  0  0  0  0  0  0  0999 V2000 
    0.9721   -0.1567    0.1613 C   0  0  0  0  0  0  0  0  0  0  0  0 
   10.2451    3.9910   -1.2495 C   0  0  0  0  0  0  0  0  0  0  0  0 
    9.2115    4.5046   -0.4640 C   0  0  0  0  0  0  0  0  0  0  0  0 
   10.1002    2.7312   -1.8334 C   0  0  0  0  0  0  0  0  0  0  0  0 
    8.0480    3.7665   -0.2532 C   0  0  0  0  0  0  0  0  0  0  0  0 
    8.9325    1.9937   -1.6458 C   0  0  0  0  0  0  0  0  0  0  0  0 
    3.2043   -1.2431   -0.0099 C   0  0  0  0  0  0  0  0  0  0  0  0 
    4.7026   -1.3259   -0.1732 C   0  0  0  0  0  0  0  0  0  0  0  0 
    3.0670    1.2604   -0.1839 C   0  0  0  0  0  0  0  0  0  0  0  0 
    6.6399    0.3772   -0.5490 C   0  0  0  0  0  0  0  0  0  0  0  0 
    5.4395    2.2792   -0.5204 C   0  0  0  0  0  0  0  0  0  0  0  0 
    2.4695   -0.1229   -0.0114 C   0  0  0  0  0  0  0  0  0  0  0  0 
    5.3226    0.0290   -0.3572 C   0  0  0  0  0  0  0  0  0  0  0  0 
    4.5598    1.2354   -0.3468 C   0  0  0  0  0  0  0  0  0  0  0  0 
    7.9001    2.5065   -0.8487 C   0  0  0  0  0  0  0  0  0  0  0  0 
    6.7169    1.7572   -0.6472 N   0  0  0  0  0  0  0  0  0  0  0  0 
    0.5993   -1.1791    0.2794 H   0  0  0  0  0  0  0  0  0  0  0  0 
    0.4616    0.2932   -0.7022 H   0  0  0  0  0  0  0  0  0  0  0  0 
    0.6600    0.4222    1.0423 H   0  0  0  0  0  0  0  0  0  0  0  0 
   11.1535    4.5660   -1.4046 H   0  0  0  0  0  0  0  0  0  0  0  0 
    9.3146    5.4803    0.0032 H   0  0  0  0  0  0  0  0  0  0  0  0 
   10.8934    2.3231   -2.4540 H   0  0  0  0  0  0  0  0  0  0  0  0 
    7.2632    4.1506    0.3905 H   0  0  0  0  0  0  0  0  0  0  0  0 
    8.8061    1.0325   -2.1336 H   0  0  0  0  0  0  0  0  0  0  0  0 
    2.6945   -2.1976    0.1210 H   0  0  0  0  0  0  0  0  0  0  0  0 
    4.9353   -1.9833   -1.0263 H   0  0  0  0  0  0  0  0  0  0  0  0 
    5.1312   -1.8396    0.7026 H   0  0  0  0  0  0  0  0  0  0  0  0 
    2.7770    1.8797    0.6807 H   0  0  0  0  0  0  0  0  0  0  0  0 
    2.5858    1.7467   -1.0485 H   0  0  0  0  0  0  0  0  0  0  0  0 
    7.5369   -0.2243   -0.5689 H   0  0  0  0  0  0  0  0  0  0  0  0 
    5.2691    3.3409   -0.6233 H   0  0  0  0  0  0  0  0  0  0  0  0 
  1 17  1  0  0  0  0 
  1 19  1  0  0  0  0 
  2  3  2  0  0  0  0 
  3  5  1  0  0  0  0 
  3 21  1  0  0  0  0 
  4  6  2  0  0  0  0 
  4  2  1  0  0  0  0 
  5 23  1  0  0  0  0 
  6 15  1  0  0  0  0 
  7 25  1  0  0  0  0 
  8  7  1  0  0  0  0 
  8 27  1  0  0  0  0 
  9 12  1  0  0  0  0 
  9 28  1  0  0  0  0 
 10 13  2  0  0  0  0 
 11 14  2  0  0  0  0 
 12  7  2  0  0  0  0 
 12  1  1  0  0  0  0 
 13 14  1  0  0  0  0 
 13  8  1  0  0  0  0 
 14  9  1  0  0  0  0 
 15 16  1  0  0  0  0 
 15  5  2  0  0  0  0 
 16 10  1  0  0  0  0 
 16 11  1  0  0  0  0 
 18  1  1  0  0  0  0 
 20  2  1  0  0  0  0 
 22  4  1  0  0  0  0 
 24  6  1  0  0  0  0 
 26  8  1  0  0  0  0 
 29  9  1  0  0  0  0 
 30 10  1  0  0  0  0 
 31 11  1  0  0  0  0 
M  END 
>  <HBA> 
1 
 
>  <HBD> 
0 
 
>  <TPSA> 
4.93 
 
>  <cid> 
35347 
 
>  <dipole> 
1.07 
 
>  <excitation_energy_1> 
4.353 
 
>  <excitation_energy_2> 
4.421 
 
>  <excitation_energy_3> 
4.574 
 
>  <excitation_energy_4> 
4.613 
 
>  <homo_energy> 
-5.429 
 
>  <homo_lumo_gap> 
5.124 
 
>  <logP> 
3.522 
 
>  <lumo_energy> 
-0.305 
 
>  <melting_point> 
81.2 
 
>  <molecular_refractivity> 
67.53 
 
>  <oscillator_strength_1> 
0.0075 
 
>  <oscillator_strength_2> 
0.0022 
 
>  <oscillator_strength_3> 
0.0102 
 
>  <oscillator_strength_4> 
0.3741 
 
>  <open_babel_can_smiles> 
CC1=CCc2c(C1)cn(c2)c1ccccc1 
 
>  <mulliken_charges> 
31 
1   -0.515031 
2   -0.125446 
3   -0.140382 
4   -0.140284 
5   -0.163518 
6   -0.163561 
7   -0.177887 
8   -0.377588 
9   -0.407716 
10   -0.040149 
11   -0.041664 
12   0.192748 
13   0.073248 
14   0.075059 
15   0.321687 
16   -0.509845 
17   0.151422 
18   0.148889 
19   0.148797 
20   0.13113 
21   0.134485 
22   0.134492 
23   0.142762 
24   0.142968 
25   0.108895 
26   0.152165 
27   0.15304 
28   0.150034 
29   0.150769 
30   0.145428 
31   0.145054 
 
>  <lowdin_charges> 
31 
1   -0.439508 
2   -0.166006 
3   -0.146704 
4   -0.148661 
5   -0.176707 
6   -0.175134 
7   -0.189603 
8   -0.268322 
9   -0.269449 
10   -0.172954 
11   -0.170512 
12   -0.01292 
13   -0.050941 
14   -0.052394 
15   0.054176 
16   0.020668 
17   0.154198 
18   0.153129 
19   0.152841 
20   0.159659 
21   0.159797 
22   0.161421 
23   0.166569 
24   0.165281 
25   0.147303 
26   0.155248 
27   0.155604 
28   0.154083 
29   0.154492 
30   0.163882 
31   0.161463 
 
$$$$ 
 
