PCCDB-ID:  10823 
public computational chemistry database (PCCDB) project, http://pccdb.org 
 
 17 17  0  0  0  0  0  0  0  0999 V2000 
    3.6337   -0.0312   -1.0426 C   0  0  0  0  0  0  0  0  0  0  0  0 
    2.5411    0.0431    0.0393 C   0  0  0  0  0  0  0  0  0  0  0  0 
    4.0328    0.9834    3.4244 C   0  0  0  0  0  0  0  0  0  0  0  0 
    3.4934    1.1143    2.1462 C   0  0  0  0  0  0  0  0  0  0  0  0 
    4.1610   -0.2966    3.9646 C   0  0  0  0  0  0  0  0  0  0  0  0 
    3.2708   -1.2586    2.0941 C   0  0  0  0  0  0  0  0  0  0  0  0 
    3.0975   -0.0288    1.4436 C   0  0  0  0  0  0  0  0  0  0  0  0 
    3.7871   -1.4079    3.3187 N   0  0  0  0  0  0  0  0  0  0  0  0 
    3.1940    0.0229   -2.0449 H   0  0  0  0  0  0  0  0  0  0  0  0 
    4.1967   -0.9681   -0.9675 H   0  0  0  0  0  0  0  0  0  0  0  0 
    4.3473    0.7941   -0.9391 H   0  0  0  0  0  0  0  0  0  0  0  0 
    1.8270   -0.7762   -0.1124 H   0  0  0  0  0  0  0  0  0  0  0  0 
    1.9744    0.9750   -0.0820 H   0  0  0  0  0  0  0  0  0  0  0  0 
    4.3441    1.8542    3.9943 H   0  0  0  0  0  0  0  0  0  0  0  0 
    3.3752    2.0980    1.6961 H   0  0  0  0  0  0  0  0  0  0  0  0 
    4.5776   -0.4378    4.9607 H   0  0  0  0  0  0  0  0  0  0  0  0 
    2.9664   -2.1786    1.5933 H   0  0  0  0  0  0  0  0  0  0  0  0 
  1 10  1  0  0  0  0 
  1 11  1  0  0  0  0 
  1  2  1  0  0  0  0 
  2  7  1  0  0  0  0 
  3  5  1  0  0  0  0 
  3 14  1  0  0  0  0 
  4  3  2  0  0  0  0 
  5 16  1  0  0  0  0 
  6  8  1  0  0  0  0 
  7  6  2  0  0  0  0 
  7  4  1  0  0  0  0 
  8  5  2  0  0  0  0 
  9  1  1  0  0  0  0 
 12  2  1  0  0  0  0 
 13  2  1  0  0  0  0 
 15  4  1  0  0  0  0 
 17  6  1  0  0  0  0 
M  END 
>  <HBA> 
1 
 
>  <HBD> 
0 
 
>  <TPSA> 
12.89 
 
>  <cid> 
10823 
 
>  <dipole> 
2.38 
 
>  <excitation_energy_1> 
4.836 
 
>  <excitation_energy_2> 
5.15 
 
>  <excitation_energy_3> 
5.369 
 
>  <excitation_energy_4> 
6.061 
 
>  <homo_energy> 
-6.754 
 
>  <homo_lumo_gap> 
6.229 
 
>  <logP> 
1.644 
 
>  <lumo_energy> 
-0.525 
 
>  <melting_point> 
21.99 
 
>  <molecular_refractivity> 
34.01 
 
>  <oscillator_strength_1> 
0.0045 
 
>  <oscillator_strength_2> 
0.0002 
 
>  <oscillator_strength_3> 
0.0505 
 
>  <oscillator_strength_4> 
0.0775 
 
>  <open_babel_can_smiles> 
CCc1cccnc1 
 
>  <mulliken_charges> 
17 
1   -0.434993 
2   -0.344727 
3   -0.137088 
4   -0.150549 
5   0.035737 
6   -0.010424 
7   0.159576 
8   -0.408484 
9   0.147679 
10   0.153996 
11   0.149502 
12   0.149835 
13   0.145762 
14   0.135457 
15   0.135221 
16   0.139386 
17   0.134115 
 
>  <lowdin_charges> 
17 
1   -0.440031 
2   -0.271526 
3   -0.175619 
4   -0.140692 
5   -0.093373 
6   -0.103874 
7   -0.017206 
8   -0.14696 
9   0.151039 
10   0.153019 
11   0.15131 
12   0.153183 
13   0.150556 
14   0.16384 
15   0.158654 
16   0.154527 
17   0.153153 
 
$$$$ 
 
