PCCDB-ID:  62547 
public computational chemistry database (PCCDB) project, http://pccdb.org 
 
 24 26  0  0  0  0  0  0  0  0999 V2000 
    2.5181   -0.9294   -0.0413 C   0  0  0  0  0  0  0  0  0  0  0  0 
    2.3574    0.4819    0.0118 C   0  0  0  0  0  0  0  0  0  0  0  0 
    1.4372   -1.7929   -0.0740 C   0  0  0  0  0  0  0  0  0  0  0  0 
    0.5694    2.4348    0.0510 C   0  0  0  0  0  0  0  0  0  0  0  0 
   -0.9944    2.3052    0.0251 C   0  0  0  0  0  0  0  0  0  0  0  0 
   -2.4094    0.0593   -0.0520 C   0  0  0  0  0  0  0  0  0  0  0  0 
   -2.3207   -1.3574   -0.0657 C   0  0  0  0  0  0  0  0  0  0  0  0 
    1.0831    1.0044    0.0207 C   0  0  0  0  0  0  0  0  0  0  0  0 
   -1.2564    0.8092   -0.0143 C   0  0  0  0  0  0  0  0  0  0  0  0 
    0.1106   -1.2823   -0.0490 C   0  0  0  0  0  0  0  0  0  0  0  0 
   -1.1077   -2.0389   -0.0607 C   0  0  0  0  0  0  0  0  0  0  0  0 
   -0.0213    0.1244   -0.0117 C   0  0  0  0  0  0  0  0  0  0  0  0 
   -1.0540   -3.4396   -0.1276 N   0  0  0  0  0  0  0  0  0  0  0  0 
    3.5242   -1.3405   -0.0659 H   0  0  0  0  0  0  0  0  0  0  0  0 
    3.2361    1.1221    0.0352 H   0  0  0  0  0  0  0  0  0  0  0  0 
    1.6139   -2.8626   -0.1481 H   0  0  0  0  0  0  0  0  0  0  0  0 
    0.9128    2.9655    0.9475 H   0  0  0  0  0  0  0  0  0  0  0  0 
    0.9381    3.0099   -0.8072 H   0  0  0  0  0  0  0  0  0  0  0  0 
   -1.4207    2.8166   -0.8470 H   0  0  0  0  0  0  0  0  0  0  0  0 
   -1.4461    2.7745    0.9081 H   0  0  0  0  0  0  0  0  0  0  0  0 
   -3.3930    0.5235   -0.0581 H   0  0  0  0  0  0  0  0  0  0  0  0 
   -3.2418   -1.9373   -0.0771 H   0  0  0  0  0  0  0  0  0  0  0  0 
   -1.9351   -3.8886    0.0952 H   0  0  0  0  0  0  0  0  0  0  0  0 
   -0.3052   -3.8511    0.4182 H   0  0  0  0  0  0  0  0  0  0  0  0 
  1  2  2  0  0  0  0 
  2  8  1  0  0  0  0 
  2 15  1  0  0  0  0 
  3 10  2  0  0  0  0 
  3  1  1  0  0  0  0 
  4 17  1  0  0  0  0 
  5  4  1  0  0  0  0 
  5 20  1  0  0  0  0 
  6  9  2  0  0  0  0 
  7 11  2  0  0  0  0 
  7  6  1  0  0  0  0 
  8  4  1  0  0  0  0 
  9 12  1  0  0  0  0 
  9  5  1  0  0  0  0 
 10 12  1  0  0  0  0 
 11 10  1  0  0  0  0 
 12  8  2  0  0  0  0 
 13 11  1  0  0  0  0 
 13 23  1  0  0  0  0 
 13 24  1  0  0  0  0 
 14  1  1  0  0  0  0 
 16  3  1  0  0  0  0 
 18  4  1  0  0  0  0 
 19  5  1  0  0  0  0 
 21  6  1  0  0  0  0 
 22  7  1  0  0  0  0 
M  END 
>  <HBA> 
1 
 
>  <HBD> 
1 
 
>  <TPSA> 
26.02 
 
>  <cid> 
62547 
 
>  <dipole> 
1.26 
 
>  <excitation_energy_1> 
3.754 
 
>  <excitation_energy_2> 
4.066 
 
>  <excitation_energy_3> 
4.362 
 
>  <excitation_energy_4> 
4.896 
 
>  <homo_energy> 
-4.86 
 
>  <homo_lumo_gap> 
4.324 
 
>  <logP> 
3.102 
 
>  <lumo_energy> 
-0.536 
 
>  <melting_point> 
130.06 
 
>  <molecular_refractivity> 
56.17 
 
>  <oscillator_strength_1> 
0.1066 
 
>  <oscillator_strength_2> 
0.0547 
 
>  <oscillator_strength_3> 
0.0045 
 
>  <oscillator_strength_4> 
0.0029 
 
>  <open_babel_can_smiles> 
Nc1ccc2c3c1cccc3CC2 
 
>  <mulliken_charges> 
24 
1   -0.130196 
2   -0.221599 
3   -0.216023 
4   -0.361066 
5   -0.361323 
6   -0.236025 
7   -0.178132 
8   0.129027 
9   0.14248 
10   0.171814 
11   0.211128 
12   -0.01275 
13   -0.785045 
14   0.122944 
15   0.120647 
16   0.119942 
17   0.156497 
18   0.157427 
19   0.154372 
20   0.153181 
21   0.118924 
22   0.108433 
23   0.316618 
24   0.318723 
 
>  <lowdin_charges> 
24 
1   -0.155167 
2   -0.179881 
3   -0.170817 
4   -0.277729 
5   -0.276512 
6   -0.167363 
7   -0.207437 
8   0.001469 
9   -0.026242 
10   -0.025632 
11   0.05034 
12   -0.008334 
13   -0.493094 
14   0.154881 
15   0.155077 
16   0.151465 
17   0.156847 
18   0.157575 
19   0.15513 
20   0.154404 
21   0.153561 
22   0.150208 
23   0.272684 
24   0.274563 
 
$$$$ 
 
