PCCDB-ID:  13394 
public computational chemistry database (PCCDB) project, http://pccdb.org 
 
 14 14  0  0  0  0  0  0  0  0999 V2000 
   -0.7529    1.1738   -0.0047 C   0  0  0  0  0  0  0  0  0  0  0  0 
   -1.3943   -0.0610   -0.0250 C   0  0  0  0  0  0  0  0  0  0  0  0 
    0.6401    1.2545   -0.0237 C   0  0  0  0  0  0  0  0  0  0  0  0 
    0.7825   -1.1637   -0.0852 C   0  0  0  0  0  0  0  0  0  0  0  0 
   -1.2608   -2.5141   -0.0873 C   0  0  0  0  0  0  0  0  0  0  0  0 
   -0.6164   -1.2314   -0.0658 C   0  0  0  0  0  0  0  0  0  0  0  0 
    1.4086    0.0850   -0.0632 C   0  0  0  0  0  0  0  0  0  0  0  0 
   -1.7884   -3.5505   -0.1044 N   0  0  0  0  0  0  0  0  0  0  0  0 
    2.7720    0.0953   -0.0833 O   0  0  0  0  0  0  0  0  0  0  0  0 
   -1.3400    2.0869    0.0259 H   0  0  0  0  0  0  0  0  0  0  0  0 
   -2.4762   -0.1303   -0.0097 H   0  0  0  0  0  0  0  0  0  0  0  0 
    1.1317    2.2254   -0.0081 H   0  0  0  0  0  0  0  0  0  0  0  0 
    1.3858   -2.0638   -0.1172 H   0  0  0  0  0  0  0  0  0  0  0  0 
    3.0869    1.0123   -0.0564 H   0  0  0  0  0  0  0  0  0  0  0  0 
  1 10  1  0  0  0  0 
  2 11  1  0  0  0  0 
  2  1  2  0  0  0  0 
  3 12  1  0  0  0  0 
  3  1  1  0  0  0  0 
  4  6  2  0  0  0  0 
  4  7  1  0  0  0  0 
  5  6  1  0  0  0  0 
  6  2  1  0  0  0  0 
  7  3  2  0  0  0  0 
  8  5  3  0  0  0  0 
  9  7  1  0  0  0  0 
  9 14  1  0  0  0  0 
 13  4  1  0  0  0  0 
M  END 
>  <HBA> 
2 
 
>  <HBD> 
1 
 
>  <TPSA> 
44.02 
 
>  <cid> 
13394 
 
>  <dipole> 
5.81 
 
>  <excitation_energy_1> 
4.638 
 
>  <excitation_energy_2> 
5.45 
 
>  <excitation_energy_3> 
5.549 
 
>  <excitation_energy_4> 
6.207 
 
>  <homo_energy> 
-6.683 
 
>  <homo_lumo_gap> 
5.295 
 
>  <logP> 
1.264 
 
>  <lumo_energy> 
-1.388 
 
>  <melting_point> 
82.03 
 
>  <molecular_refractivity> 
33.18 
 
>  <oscillator_strength_1> 
0.0618 
 
>  <oscillator_strength_2> 
0.0975 
 
>  <oscillator_strength_3> 
0.0 
 
>  <oscillator_strength_4> 
0.5744 
 
>  <open_babel_can_smiles> 
N#Cc1cccc(c1)O 
 
>  <mulliken_charges> 
14 
1   -0.136638 
2   -0.140949 
3   -0.182058 
4   -0.174617 
5   0.240112 
6   0.12766 
7   0.358474 
8   -0.476798 
9   -0.635955 
10   0.148296 
11   0.157234 
12   0.132822 
13   0.169279 
14   0.413138 
 
>  <lowdin_charges> 
14 
1   -0.138302 
2   -0.15428 
3   -0.19772 
4   -0.162853 
5   -0.010641 
6   -0.007782 
7   0.109647 
8   -0.116379 
9   -0.36806 
10   0.168304 
11   0.172641 
12   0.160487 
13   0.184433 
14   0.360504 
 
$$$$ 
 
