PCCDB-ID:  66692 
public computational chemistry database (PCCDB) project, http://pccdb.org 
 
 31 33  0  0  0  0  0  0  0  0999 V2000 
   -1.5133   -0.1154    0.1034 C   0  0  0  0  0  0  0  0  0  0  0  0 
    6.8668    5.2518   -0.9176 C   0  0  0  0  0  0  0  0  0  0  0  0 
   -0.6801   -0.9580    0.8413 C   0  0  0  0  0  0  0  0  0  0  0  0 
   -0.9497    0.8302   -0.7553 C   0  0  0  0  0  0  0  0  0  0  0  0 
    5.6416    5.0531   -1.5569 C   0  0  0  0  0  0  0  0  0  0  0  0 
    7.4149    4.2255   -0.1461 C   0  0  0  0  0  0  0  0  0  0  0  0 
    0.7052   -0.8555    0.7229 C   0  0  0  0  0  0  0  0  0  0  0  0 
    0.4353    0.9307   -0.8758 C   0  0  0  0  0  0  0  0  0  0  0  0 
    4.9718    3.8377   -1.4266 C   0  0  0  0  0  0  0  0  0  0  0  0 
    6.7434    3.0110   -0.0134 C   0  0  0  0  0  0  0  0  0  0  0  0 
    3.4034    1.4346   -0.3998 C   0  0  0  0  0  0  0  0  0  0  0  0 
    3.5798   -0.9437   -0.2594 C   0  0  0  0  0  0  0  0  0  0  0  0 
    5.4944    0.2831   -0.4922 C   0  0  0  0  0  0  0  0  0  0  0  0 
    1.2864    0.0901   -0.1387 C   0  0  0  0  0  0  0  0  0  0  0  0 
    5.5107    2.7962   -0.6527 C   0  0  0  0  0  0  0  0  0  0  0  0 
    2.7600    0.1977   -0.2685 C   0  0  0  0  0  0  0  0  0  0  0  0 
    4.7972    1.5030   -0.5163 C   0  0  0  0  0  0  0  0  0  0  0  0 
    4.9106   -0.9114   -0.3662 N   0  0  0  0  0  0  0  0  0  0  0  0 
   -2.5929   -0.1945    0.1971 H   0  0  0  0  0  0  0  0  0  0  0  0 
    7.3898    6.1988   -1.0193 H   0  0  0  0  0  0  0  0  0  0  0  0 
   -1.1084   -1.6921    1.5185 H   0  0  0  0  0  0  0  0  0  0  0  0 
   -1.5894    1.4863   -1.3396 H   0  0  0  0  0  0  0  0  0  0  0  0 
    5.2094    5.8429   -2.1655 H   0  0  0  0  0  0  0  0  0  0  0  0 
    8.3643    4.3726    0.3619 H   0  0  0  0  0  0  0  0  0  0  0  0 
    1.3448   -1.4968    1.3228 H   0  0  0  0  0  0  0  0  0  0  0  0 
    0.8638    1.6508   -1.5677 H   0  0  0  0  0  0  0  0  0  0  0  0 
    4.0324    3.6831   -1.9506 H   0  0  0  0  0  0  0  0  0  0  0  0 
    7.1653    2.2289    0.6114 H   0  0  0  0  0  0  0  0  0  0  0  0 
    2.8204    2.3509   -0.3686 H   0  0  0  0  0  0  0  0  0  0  0  0 
    3.1313   -1.9327   -0.1836 H   0  0  0  0  0  0  0  0  0  0  0  0 
    6.5775    0.2755   -0.6014 H   0  0  0  0  0  0  0  0  0  0  0  0 
  1 19  1  0  0  0  0 
  1  3  2  0  0  0  0 
  2  6  2  0  0  0  0 
  3 21  1  0  0  0  0 
  4  1  1  0  0  0  0 
  5  9  2  0  0  0  0 
  5  2  1  0  0  0  0 
  6 10  1  0  0  0  0 
  6 24  1  0  0  0  0 
  7  3  1  0  0  0  0 
  7 25  1  0  0  0  0 
  8  4  2  0  0  0  0 
  8 14  1  0  0  0  0 
  9 15  1  0  0  0  0 
 10 28  1  0  0  0  0 
 11 29  1  0  0  0  0 
 11 16  2  0  0  0  0 
 12 30  1  0  0  0  0 
 13 18  1  0  0  0  0 
 14  7  2  0  0  0  0 
 15 17  1  0  0  0  0 
 15 10  2  0  0  0  0 
 16 12  1  0  0  0  0 
 16 14  1  0  0  0  0 
 17 13  2  0  0  0  0 
 17 11  1  0  0  0  0 
 18 12  2  0  0  0  0 
 20  2  1  0  0  0  0 
 22  4  1  0  0  0  0 
 23  5  1  0  0  0  0 
 26  8  1  0  0  0  0 
 27  9  1  0  0  0  0 
 31 13  1  0  0  0  0 
M  END 
>  <HBA> 
1 
 
>  <HBD> 
0 
 
>  <TPSA> 
12.89 
 
>  <cid> 
66692 
 
>  <dipole> 
2.39 
 
>  <excitation_energy_1> 
4.444 
 
>  <excitation_energy_2> 
4.622 
 
>  <excitation_energy_3> 
4.646 
 
>  <excitation_energy_4> 
4.73 
 
>  <homo_energy> 
-6.182 
 
>  <homo_lumo_gap> 
5.143 
 
>  <logP> 
4.416 
 
>  <lumo_energy> 
-1.039 
 
>  <melting_point> 
94.37 
 
>  <molecular_refractivity> 
75.11 
 
>  <oscillator_strength_1> 
0.1096 
 
>  <oscillator_strength_2> 
0.1369 
 
>  <oscillator_strength_3> 
0.0035 
 
>  <oscillator_strength_4> 
0.1284 
 
>  <open_babel_can_smiles> 
n1cc(cc(c1)c1ccccc1)c1ccccc1 
 
>  <mulliken_charges> 
31 
1   -0.124894 
2   -0.124975 
3   -0.133873 
4   -0.133604 
5   -0.133681 
6   -0.133937 
7   -0.172608 
8   -0.170817 
9   -0.170474 
10   -0.172292 
11   -0.189408 
12   -0.00273 
13   -0.002736 
14   0.087212 
15   0.0865 
16   0.066792 
17   0.067325 
18   -0.415965 
19   0.132637 
20   0.132663 
21   0.13422 
22   0.132998 
23   0.133027 
24   0.134242 
25   0.138017 
26   0.130945 
27   0.130916 
28   0.138027 
29   0.147758 
30   0.144369 
31   0.144345 
 
>  <lowdin_charges> 
31 
1   -0.152743 
2   -0.154858 
3   -0.153182 
4   -0.15471 
5   -0.154337 
6   -0.151698 
7   -0.160819 
8   -0.16126 
9   -0.159742 
10   -0.160384 
11   -0.142694 
12   -0.099058 
13   -0.096121 
14   -0.002936 
15   -0.00304 
16   -0.016609 
17   -0.017514 
18   -0.141464 
19   0.157571 
20   0.159478 
21   0.161013 
22   0.160861 
23   0.160502 
24   0.159665 
25   0.163245 
26   0.15949 
27   0.158186 
28   0.16285 
29   0.165856 
30   0.158326 
31   0.156125 
 
$$$$ 
 
