PCCDB-ID:  40452 
public computational chemistry database (PCCDB) project, http://pccdb.org 
 
  9  9  0  0  0  0  0  0  0  0999 V2000 
   -0.9830    0.2368    0.0008 C   0  0  0  0  0  0  0  0  0  0  0  0 
   -0.3336   -0.9676    0.0016 C   0  0  0  0  0  0  0  0  0  0  0  0 
    0.2821    1.0282   -0.0013 C   0  0  0  0  0  0  0  0  0  0  0  0 
    1.0530   -0.3452    0.0005 C   0  0  0  0  0  0  0  0  0  0  0  0 
   -0.6594   -2.2507    0.0043 O   0  0  0  0  0  0  0  0  0  0  0  0 
    0.5803    2.1936   -0.0040 O   0  0  0  0  0  0  0  0  0  0  0  0 
    2.1782   -0.7566    0.0023 O   0  0  0  0  0  0  0  0  0  0  0  0 
   -2.0265    0.5256    0.0027 H   0  0  0  0  0  0  0  0  0  0  0  0 
   -1.6265   -2.3605    0.0028 H   0  0  0  0  0  0  0  0  0  0  0  0 
  1  2  2  0  0  0  0 
  1  8  1  0  0  0  0 
  2  5  1  0  0  0  0 
  3  4  1  0  0  0  0 
  3  1  1  0  0  0  0 
  4  2  1  0  0  0  0 
  4  7  2  0  0  0  0 
  6  3  2  0  0  0  0 
  9  5  1  0  0  0  0 
M  END 
>  <HBA> 
3 
 
>  <HBD> 
1 
 
>  <TPSA> 
54.37 
 
>  <cid> 
40452 
 
>  <dipole> 
5.99 
 
>  <excitation_energy_1> 
3.251 
 
>  <excitation_energy_2> 
3.85 
 
>  <excitation_energy_3> 
5.161 
 
>  <excitation_energy_4> 
5.316 
 
>  <homo_energy> 
-6.591 
 
>  <homo_lumo_gap> 
4.667 
 
>  <logP> 
-0.42 
 
>  <lumo_energy> 
-1.924 
 
>  <melting_point> 
64.62 
 
>  <molecular_refractivity> 
20.73 
 
>  <oscillator_strength_1> 
0.0 
 
>  <oscillator_strength_2> 
0.0002 
 
>  <oscillator_strength_3> 
0.0006 
 
>  <oscillator_strength_4> 
0.0 
 
>  <open_babel_can_smiles> 
OC1=CC(=O)C1=O 
 
>  <mulliken_charges> 
9 
1   -0.191605 
2   0.266563 
3   0.358714 
4   0.375352 
5   -0.572228 
6   -0.434382 
7   -0.404582 
8   0.17028 
9   0.431887 
 
>  <lowdin_charges> 
9 
1   -0.207661 
2   0.086657 
3   0.112774 
4   0.113968 
5   -0.294833 
6   -0.201872 
7   -0.165431 
8   0.179058 
9   0.377341 
 
$$$$ 
 
