PCCDB-ID:  62089 
public computational chemistry database (PCCDB) project, http://pccdb.org 
 
 29 28  0  0  1  0  0  0  0  0999 V2000 
    3.5550    2.5899   -1.5324 C   0  0  0  0  0  0  0  0  0  0  0  0 
    4.6673   -2.6820   -2.9564 C   0  0  0  0  0  0  0  0  0  0  0  0 
    3.5315    1.2144   -0.8582 C   0  0  0  0  0  0  0  0  0  0  0  0 
    4.4021    0.1724   -1.5745 C   0  0  0  0  0  0  0  0  0  0  0  0 
    4.3664   -1.2036   -0.8923 C   0  0  0  0  0  0  0  0  0  0  0  0 
    6.7092   -2.0462   -1.6233 C   0  0  0  0  0  0  0  0  0  0  0  0 
    7.4115   -1.8719   -0.2711 C   0  0  0  0  0  0  0  0  0  0  0  0 
    5.1933   -2.3307   -1.5548 C   0  0  2  0  0  0  0  0  0  0  0  0 
    7.5047   -3.1611    0.5402 C   0  0  0  0  0  0  0  0  0  0  0  0 
    7.2274   -4.2603    0.1310 O   0  0  0  0  0  0  0  0  0  0  0  0 
    7.9721   -3.0122    1.8127 O   0  0  0  0  0  0  0  0  0  0  0  0 
    2.9269    3.3100   -0.9957 H   0  0  0  0  0  0  0  0  0  0  0  0 
    3.1874    2.5318   -2.5643 H   0  0  0  0  0  0  0  0  0  0  0  0 
    4.5730    2.9977   -1.5677 H   0  0  0  0  0  0  0  0  0  0  0  0 
    3.5876   -2.8726   -2.9372 H   0  0  0  0  0  0  0  0  0  0  0  0 
    5.1581   -3.5836   -3.3402 H   0  0  0  0  0  0  0  0  0  0  0  0 
    4.8503   -1.8750   -3.6765 H   0  0  0  0  0  0  0  0  0  0  0  0 
    2.4963    0.8479   -0.8096 H   0  0  0  0  0  0  0  0  0  0  0  0 
    3.8664    1.3117    0.1847 H   0  0  0  0  0  0  0  0  0  0  0  0 
    5.4349    0.5472   -1.6215 H   0  0  0  0  0  0  0  0  0  0  0  0 
    4.0651    0.0826   -2.6163 H   0  0  0  0  0  0  0  0  0  0  0  0 
    3.3212   -1.5415   -0.8417 H   0  0  0  0  0  0  0  0  0  0  0  0 
    4.6802   -1.0853    0.1554 H   0  0  0  0  0  0  0  0  0  0  0  0 
    7.1937   -2.8776   -2.1479 H   0  0  0  0  0  0  0  0  0  0  0  0 
    6.8915   -1.1473   -2.2259 H   0  0  0  0  0  0  0  0  0  0  0  0 
    6.9202   -1.1011    0.3388 H   0  0  0  0  0  0  0  0  0  0  0  0 
    8.4414   -1.5181   -0.4281 H   0  0  0  0  0  0  0  0  0  0  0  0 
    5.0658   -3.2233   -0.9291 H   0  0  0  0  0  0  0  0  0  0  0  0 
    8.1460   -2.0735    1.9933 H   0  0  0  0  0  0  0  0  0  0  0  0 
  1 12  1  0  0  0  0 
  1  3  1  0  0  0  0 
  2 15  1  0  0  0  0 
  2  8  1  0  0  0  0 
  3 18  1  0  0  0  0 
  3 19  1  0  0  0  0 
  4  5  1  0  0  0  0 
  4  3  1  0  0  0  0 
  5 22  1  0  0  0  0 
  5 23  1  0  0  0  0 
  6  8  1  0  0  0  0 
  6  7  1  0  0  0  0 
  7 26  1  0  0  0  0 
  7  9  1  0  0  0  0 
  8 28  1  1  0  0  0 
  8  5  1  0  0  0  0 
  9 11  1  0  0  0  0 
 10  9  2  0  0  0  0 
 11 29  1  0  0  0  0 
 13  1  1  0  0  0  0 
 14  1  1  0  0  0  0 
 16  2  1  0  0  0  0 
 17  2  1  0  0  0  0 
 20  4  1  0  0  0  0 
 21  4  1  0  0  0  0 
 24  6  1  0  0  0  0 
 25  6  1  0  0  0  0 
 27  7  1  0  0  0  0 
M  END 
>  <HBA> 
2 
 
>  <HBD> 
1 
 
>  <TPSA> 
37.3 
 
>  <cid> 
62089 
 
>  <dipole> 
3.93 
 
>  <excitation_energy_1> 
5.698 
 
>  <excitation_energy_2> 
6.366 
 
>  <excitation_energy_3> 
7.231 
 
>  <excitation_energy_4> 
7.283 
 
>  <homo_energy> 
-7.355 
 
>  <homo_lumo_gap> 
7.636 
 
>  <logP> 
2.678 
 
>  <lumo_energy> 
0.28 
 
>  <melting_point> 
48.6 
 
>  <molecular_refractivity> 
47.15 
 
>  <oscillator_strength_1> 
0.0005 
 
>  <oscillator_strength_2> 
0.0136 
 
>  <oscillator_strength_3> 
0.001 
 
>  <oscillator_strength_4> 
0.0014 
 
>  <open_babel_can_smiles> 
CCCC[C@H](CCC(=O)O)C 
 
>  <mulliken_charges> 
29 
1   -0.441795 
2   -0.454706 
3   -0.24612 
4   -0.253848 
5   -0.264956 
6   -0.25181 
7   -0.412263 
8   -0.078469 
9   0.609869 
10   -0.438256 
11   -0.567533 
12   0.142838 
13   0.142816 
14   0.139128 
15   0.140489 
16   0.14938 
17   0.139759 
18   0.132973 
19   0.126239 
20   0.124149 
21   0.1352 
22   0.131421 
23   0.118841 
24   0.156859 
25   0.132392 
26   0.157718 
27   0.171658 
28   0.150179 
29   0.407849 
 
>  <lowdin_charges> 
29 
1   -0.444132 
2   -0.445063 
3   -0.268611 
4   -0.277688 
5   -0.277402 
6   -0.276178 
7   -0.326028 
8   -0.128495 
9   0.197027 
10   -0.238181 
11   -0.359631 
12   0.151079 
13   0.145917 
14   0.144314 
15   0.146797 
16   0.153382 
17   0.144939 
18   0.138909 
19   0.135223 
20   0.133667 
21   0.140158 
22   0.141712 
23   0.13187 
24   0.159505 
25   0.144593 
26   0.157618 
27   0.167303 
28   0.152322 
29   0.355074 
 
$$$$ 
 
