PCCDB-ID:  73188 
public computational chemistry database (PCCDB) project, http://pccdb.org 
 
 14 13  0  0  0  0  0  0  0  0999 V2000 
    0.9583   -0.0128    0.0805 C   0  0  0  0  0  0  0  0  0  0  0  0 
    0.4533   -1.3249   -0.5218 C   0  0  0  0  0  0  0  0  0  0  0  0 
   -0.2375   -1.4522   -1.5773 N   0  0  0  0  0  0  0  0  0  0  0  0 
    0.7391   -2.4378    0.1974 O   0  0  0  0  0  0  0  0  0  0  0  0 
    2.8544    1.4552    1.2261 O   0  0  0  0  0  0  0  0  0  0  0  0 
    2.9191   -1.1209    1.4893 O   0  0  0  0  0  0  0  0  0  0  0  0 
    3.7098   -0.0203   -0.7533 O   0  0  0  0  0  0  0  0  0  0  0  0 
    2.7530    0.0771    0.3744 P   0  0  0  0  0  0  0  0  0  0  0  0 
    0.4758    0.1568    1.0523 H   0  0  0  0  0  0  0  0  0  0  0  0 
    0.6964    0.8282   -0.5668 H   0  0  0  0  0  0  0  0  0  0  0  0 
   -0.3930   -0.5451   -2.0166 H   0  0  0  0  0  0  0  0  0  0  0  0 
    1.3723   -2.2208    0.9053 H   0  0  0  0  0  0  0  0  0  0  0  0 
    3.6797    1.9255    1.0166 H   0  0  0  0  0  0  0  0  0  0  0  0 
    3.7895   -1.5453    1.3886 H   0  0  0  0  0  0  0  0  0  0  0  0 
  1  8  1  0  0  0  0 
  1  9  1  0  0  0  0 
  2  1  1  0  0  0  0 
  2  4  1  0  0  0  0 
  3  2  2  0  0  0  0 
  4 12  1  0  0  0  0 
  7  8  2  0  0  0  0 
  8  5  1  0  0  0  0 
  8  6  1  0  0  0  0 
 10  1  1  0  0  0  0 
 11  3  1  0  0  0  0 
 13  5  1  0  0  0  0 
 14  6  1  0  0  0  0 
M  END 
>  <HBA> 
5 
 
>  <HBD> 
3 
 
>  <TPSA> 
110.43 
 
>  <cid> 
73188 
 
>  <dipole> 
5.08 
 
>  <excitation_energy_1> 
6.047 
 
>  <excitation_energy_2> 
6.074 
 
>  <excitation_energy_3> 
6.123 
 
>  <excitation_energy_4> 
6.775 
 
>  <homo_energy> 
-7.276 
 
>  <homo_lumo_gap> 
7.57 
 
>  <logP> 
-0.65 
 
>  <lumo_energy> 
0.294 
 
>  <melting_point> 
138.06 
 
>  <molecular_refractivity> 
25.62 
 
>  <oscillator_strength_1> 
0.012 
 
>  <oscillator_strength_2> 
0.002 
 
>  <oscillator_strength_3> 
0.0091 
 
>  <oscillator_strength_4> 
0.0413 
 
>  <open_babel_can_smiles> 
OC(=N)CP(=O)(O)O 
 
>  <mulliken_charges> 
14 
1   -0.586821 
2   0.490155 
3   -0.569151 
4   -0.585576 
5   -0.641743 
6   -0.681237 
7   -0.528663 
8   1.057763 
9   0.224283 
10   0.206204 
11   0.285399 
12   0.432632 
13   0.446341 
14   0.450415 
 
>  <lowdin_charges> 
14 
1   -0.488992 
2   0.128933 
3   -0.383739 
4   -0.366331 
5   -0.571257 
6   -0.58495 
7   -0.582252 
8   1.056526 
9   0.203651 
10   0.196518 
11   0.257831 
12   0.357901 
13   0.387795 
14   0.388366 
 
$$$$ 
 
