PCCDB-ID:  30898 
public computational chemistry database (PCCDB) project, http://pccdb.org 
 
 20 19  0  0  0  0  0  0  0  0999 V2000 
    2.2056    1.6453    1.7635 C   0  0  0  0  0  0  0  0  0  0  0  0 
    8.9757   -0.0127   -2.6755 C   0  0  0  0  0  0  0  0  0  0  0  0 
    3.0117    0.8716    1.0216 C   0  0  0  0  0  0  0  0  0  0  0  0 
    7.4820    0.0786   -2.8040 C   0  0  0  0  0  0  0  0  0  0  0  0 
    3.6761    1.3032   -0.2001 C   0  0  0  0  0  0  0  0  0  0  0  0 
    6.6924    0.8691   -2.0723 C   0  0  0  0  0  0  0  0  0  0  0  0 
    4.4819    0.5231   -0.9395 C   0  0  0  0  0  0  0  0  0  0  0  0 
    5.1886    0.9514   -2.2005 C   0  0  0  0  0  0  0  0  0  0  0  0 
    1.7330    1.2764    2.6687 H   0  0  0  0  0  0  0  0  0  0  0  0 
    1.9927    2.6757    1.4872 H   0  0  0  0  0  0  0  0  0  0  0  0 
    9.2933   -1.0361   -2.4333 H   0  0  0  0  0  0  0  0  0  0  0  0 
    9.3527    0.6525   -1.8912 H   0  0  0  0  0  0  0  0  0  0  0  0 
    9.4744    0.2558   -3.6168 H   0  0  0  0  0  0  0  0  0  0  0  0 
    3.1992   -0.1563    1.3342 H   0  0  0  0  0  0  0  0  0  0  0  0 
    7.0251   -0.5581   -3.5647 H   0  0  0  0  0  0  0  0  0  0  0  0 
    3.4910    2.3308   -0.5180 H   0  0  0  0  0  0  0  0  0  0  0  0 
    7.1372    1.5053   -1.3051 H   0  0  0  0  0  0  0  0  0  0  0  0 
    4.6706   -0.5016   -0.6154 H   0  0  0  0  0  0  0  0  0  0  0  0 
    4.8678    0.3157   -3.0391 H   0  0  0  0  0  0  0  0  0  0  0  0 
    4.8883    1.9795   -2.4488 H   0  0  0  0  0  0  0  0  0  0  0  0 
  1  9  1  0  0  0  0 
  2 11  1  0  0  0  0 
  2 12  1  0  0  0  0 
  3 14  1  0  0  0  0 
  3  1  2  0  0  0  0 
  4  2  1  0  0  0  0 
  4  6  2  0  0  0  0 
  5  3  1  0  0  0  0 
  6 17  1  0  0  0  0 
  7 18  1  0  0  0  0 
  7  5  2  0  0  0  0 
  8  6  1  0  0  0  0 
  8  7  1  0  0  0  0 
 10  1  1  0  0  0  0 
 13  2  1  0  0  0  0 
 15  4  1  0  0  0  0 
 16  5  1  0  0  0  0 
 19  8  1  0  0  0  0 
 20  8  1  0  0  0  0 
M  END 
>  <HBA> 
0 
 
>  <HBD> 
0 
 
>  <TPSA> 
0.0 
 
>  <cid> 
30898 
 
>  <dipole> 
0.62 
 
>  <excitation_energy_1> 
5.149 
 
>  <excitation_energy_2> 
5.429 
 
>  <excitation_energy_3> 
5.787 
 
>  <excitation_energy_4> 
5.902 
 
>  <homo_energy> 
-5.932 
 
>  <homo_lumo_gap> 
5.402 
 
>  <logP> 
2.695 
 
>  <lumo_energy> 
-0.531 
 
>  <melting_point> 
-28.91 
 
>  <molecular_refractivity> 
39.15 
 
>  <oscillator_strength_1> 
0.527 
 
>  <oscillator_strength_2> 
0.2714 
 
>  <oscillator_strength_3> 
0.0292 
 
>  <oscillator_strength_4> 
0.0957 
 
>  <open_babel_can_smiles> 
C/C=C/C/C=C/C=C 
 
>  <mulliken_charges> 
20 
1   -0.358466 
2   -0.486257 
3   -0.058003 
4   -0.09156 
5   -0.108874 
6   -0.083843 
7   -0.103452 
8   -0.35678 
9   0.141407 
10   0.138042 
11   0.154544 
12   0.153025 
13   0.154707 
14   0.124194 
15   0.118002 
16   0.118028 
17   0.122127 
18   0.127579 
19   0.148321 
20   0.147256 
 
>  <lowdin_charges> 
20 
1   -0.338152 
2   -0.439182 
3   -0.139485 
4   -0.165795 
5   -0.164187 
6   -0.170919 
7   -0.152286 
8   -0.265934 
9   0.16059 
10   0.154519 
11   0.155587 
12   0.15592 
13   0.156578 
14   0.151603 
15   0.146485 
16   0.148785 
17   0.149444 
18   0.150141 
19   0.154603 
20   0.151684 
 
$$$$ 
 
