PCCDB-ID:  56375 
public computational chemistry database (PCCDB) project, http://pccdb.org 
 
 35 36  0  0  0  0  0  0  0  0999 V2000 
    0.7646   -0.3386   -0.2058 C   0  0  0  0  0  0  0  0  0  0  0  0 
    0.6401   -0.9171    3.5698 C   0  0  0  0  0  0  0  0  0  0  0  0 
    1.9623   -0.4102    0.7429 C   0  0  0  0  0  0  0  0  0  0  0  0 
    0.7199    0.3744    2.7393 C   0  0  0  0  0  0  0  0  0  0  0  0 
    2.8501    4.5692   -0.0421 C   0  0  0  0  0  0  0  0  0  0  0  0 
    3.0012    5.9092    0.3638 C   0  0  0  0  0  0  0  0  0  0  0  0 
    2.8821    3.5239    0.8739 C   0  0  0  0  0  0  0  0  0  0  0  0 
    3.1799    6.2309    1.7038 C   0  0  0  0  0  0  0  0  0  0  0  0 
    3.3540    3.9353    4.4878 C   0  0  0  0  0  0  0  0  0  0  0  0 
    3.1655    0.5733    2.5811 C   0  0  0  0  0  0  0  0  0  0  0  0 
    3.0807    3.8119    2.2359 C   0  0  0  0  0  0  0  0  0  0  0  0 
    3.1805    3.0281    3.4563 C   0  0  0  0  0  0  0  0  0  0  0  0 
    3.2158    5.1747    2.6172 C   0  0  0  0  0  0  0  0  0  0  0  0 
    3.1957    1.5832    3.7326 C   0  0  0  0  0  0  0  0  0  0  0  0 
    3.3757    5.2056    3.9959 N   0  0  0  0  0  0  0  0  0  0  0  0 
    1.8901    0.5387    1.8610 N   0  0  0  0  0  0  0  0  0  0  0  0 
    3.2761    1.1692    4.8874 O   0  0  0  0  0  0  0  0  0  0  0  0 
    0.9598   -0.9468   -1.0959 H   0  0  0  0  0  0  0  0  0  0  0  0 
    0.5844    0.6938   -0.5248 H   0  0  0  0  0  0  0  0  0  0  0  0 
   -0.1539   -0.7192    0.2529 H   0  0  0  0  0  0  0  0  0  0  0  0 
   -0.2961   -0.9286    4.1403 H   0  0  0  0  0  0  0  0  0  0  0  0 
    1.4653   -0.9843    4.2858 H   0  0  0  0  0  0  0  0  0  0  0  0 
    0.6531   -1.8151    2.9410 H   0  0  0  0  0  0  0  0  0  0  0  0 
    2.8707   -0.1576    0.1810 H   0  0  0  0  0  0  0  0  0  0  0  0 
    2.0986   -1.4535    1.0865 H   0  0  0  0  0  0  0  0  0  0  0  0 
    0.6988    1.2359    3.4163 H   0  0  0  0  0  0  0  0  0  0  0  0 
   -0.1733    0.4669    2.1133 H   0  0  0  0  0  0  0  0  0  0  0  0 
    2.6961    4.3491   -1.0951 H   0  0  0  0  0  0  0  0  0  0  0  0 
    2.9694    6.7023   -0.3781 H   0  0  0  0  0  0  0  0  0  0  0  0 
    2.7137    2.5019    0.5556 H   0  0  0  0  0  0  0  0  0  0  0  0 
    3.2869    7.2628    2.0283 H   0  0  0  0  0  0  0  0  0  0  0  0 
    3.4760    3.7262    5.5407 H   0  0  0  0  0  0  0  0  0  0  0  0 
    3.4480   -0.3967    3.0228 H   0  0  0  0  0  0  0  0  0  0  0  0 
    3.9465    0.8456    1.8566 H   0  0  0  0  0  0  0  0  0  0  0  0 
    3.5015    6.0405    4.5483 H   0  0  0  0  0  0  0  0  0  0  0  0 
  1 20  1  0  0  0  0 
  1  3  1  0  0  0  0 
  2 21  1  0  0  0  0 
  2 22  1  0  0  0  0 
  3 25  1  0  0  0  0 
  3 16  1  0  0  0  0 
  4 26  1  0  0  0  0 
  4  2  1  0  0  0  0 
  5  6  2  0  0  0  0 
  5  7  1  0  0  0  0 
  6  8  1  0  0  0  0 
  7 11  2  0  0  0  0 
  8 31  1  0  0  0  0 
  8 13  2  0  0  0  0 
  9 32  1  0  0  0  0 
 10 33  1  0  0  0  0 
 10 14  1  0  0  0  0 
 11 13  1  0  0  0  0 
 11 12  1  0  0  0  0 
 12 14  1  0  0  0  0 
 12  9  2  0  0  0  0 
 13 15  1  0  0  0  0 
 14 17  2  0  0  0  0 
 15  9  1  0  0  0  0 
 15 35  1  0  0  0  0 
 16 10  1  0  0  0  0 
 16  4  1  0  0  0  0 
 18  1  1  0  0  0  0 
 19  1  1  0  0  0  0 
 23  2  1  0  0  0  0 
 24  3  1  0  0  0  0 
 27  4  1  0  0  0  0 
 28  5  1  0  0  0  0 
 29  6  1  0  0  0  0 
 30  7  1  0  0  0  0 
 34 10  1  0  0  0  0 
M  END 
>  <HBA> 
2 
 
>  <HBD> 
1 
 
>  <TPSA> 
36.1 
 
>  <cid> 
56375 
 
>  <dipole> 
2.72 
 
>  <excitation_energy_1> 
3.647 
 
>  <excitation_energy_2> 
3.87 
 
>  <excitation_energy_3> 
4.241 
 
>  <excitation_energy_4> 
4.484 
 
>  <homo_energy> 
-5.633 
 
>  <homo_lumo_gap> 
4.65 
 
>  <logP> 
2.692 
 
>  <lumo_energy> 
-0.982 
 
>  <melting_point> 
130.8 
 
>  <molecular_refractivity> 
70.62 
 
>  <oscillator_strength_1> 
0.0001 
 
>  <oscillator_strength_2> 
0.0003 
 
>  <oscillator_strength_3> 
0.1582 
 
>  <oscillator_strength_4> 
0.0295 
 
>  <open_babel_can_smiles> 
CCN(CC(=O)c1c[nH]c2c1cccc2)CC 
 
>  <mulliken_charges> 
35 
1   -0.460395 
2   -0.467512 
3   -0.102345 
4   -0.140266 
5   -0.146168 
6   -0.147353 
7   -0.198452 
8   -0.163157 
9   0.05522 
10   -0.196524 
11   0.058589 
12   -0.014494 
13   0.309935 
14   0.382268 
15   -0.681421 
16   -0.395931 
17   -0.496332 
18   0.144811 
19   0.157804 
20   0.15172 
21   0.141915 
22   0.17335 
23   0.141887 
24   0.134254 
25   0.119372 
26   0.154773 
27   0.143464 
28   0.12318 
29   0.126153 
30   0.161368 
31   0.124499 
32   0.183043 
33   0.141652 
34   0.146556 
35   0.334538 
 
>  <lowdin_charges> 
35 
1   -0.451777 
2   -0.469251 
3   -0.196404 
4   -0.208567 
5   -0.169354 
6   -0.162461 
7   -0.158929 
8   -0.18522 
9   -0.075441 
10   -0.225822 
11   -0.023254 
12   -0.107063 
13   0.03062 
14   0.150958 
15   -0.178316 
16   -0.188225 
17   -0.272745 
18   0.1548 
19   0.154086 
20   0.150763 
21   0.153549 
22   0.162268 
23   0.146268 
24   0.141807 
25   0.119112 
26   0.152026 
27   0.146863 
28   0.154494 
29   0.15824 
30   0.170671 
31   0.15599 
32   0.182082 
33   0.138267 
34   0.153698 
35   0.296266 
 
$$$$ 
 
