PCCDB-ID:  19242 
public computational chemistry database (PCCDB) project, http://pccdb.org 
 
 22 22  0  0  1  0  0  0  0  0999 V2000 
    5.5612   -5.0791    1.8035 C   0  0  0  0  0  0  0  0  0  0  0  0 
    6.9533   -2.5959   -0.8870 C   0  0  0  0  0  0  0  0  0  0  0  0 
    6.9040   -3.7632    0.1125 C   0  0  0  0  0  0  0  0  0  0  0  0 
    6.5397   -1.2335   -0.3047 C   0  0  0  0  0  0  0  0  0  0  0  0 
    4.3884   -3.3469    0.3782 C   0  0  0  0  0  0  0  0  0  0  0  0 
    5.7046   -3.7337    1.0785 C   0  0  1  0  0  0  0  0  0  0  0  0 
    4.2443   -1.8599    0.0508 C   0  0  0  0  0  0  0  0  0  0  0  0 
    5.1123   -0.9734   -0.1903 N   0  0  0  0  0  0  0  0  0  0  0  0 
    2.9380   -1.4303    0.0177 O   0  0  0  0  0  0  0  0  0  0  0  0 
    6.5012   -5.3641    2.2902 H   0  0  0  0  0  0  0  0  0  0  0  0 
    5.2971   -5.8792    1.0998 H   0  0  0  0  0  0  0  0  0  0  0  0 
    4.7831   -5.0403    2.5751 H   0  0  0  0  0  0  0  0  0  0  0  0 
    6.3018   -2.8015   -1.7468 H   0  0  0  0  0  0  0  0  0  0  0  0 
    7.9702   -2.5172   -1.2926 H   0  0  0  0  0  0  0  0  0  0  0  0 
    7.8223   -3.7699    0.7154 H   0  0  0  0  0  0  0  0  0  0  0  0 
    6.8982   -4.7127   -0.4422 H   0  0  0  0  0  0  0  0  0  0  0  0 
    6.9390   -0.4442   -0.9537 H   0  0  0  0  0  0  0  0  0  0  0  0 
    7.0192   -1.0746    0.6741 H   0  0  0  0  0  0  0  0  0  0  0  0 
    3.5545   -3.6251    1.0396 H   0  0  0  0  0  0  0  0  0  0  0  0 
    4.2514   -3.9388   -0.5393 H   0  0  0  0  0  0  0  0  0  0  0  0 
    5.8977   -2.9645    1.8391 H   0  0  0  0  0  0  0  0  0  0  0  0 
    2.3552   -2.1642    0.2627 H   0  0  0  0  0  0  0  0  0  0  0  0 
  1 10  1  0  0  0  0 
  1 12  1  0  0  0  0 
  2  4  1  0  0  0  0 
  2  3  1  0  0  0  0 
  3 15  1  0  0  0  0 
  3  6  1  0  0  0  0 
  4  8  1  0  0  0  0 
  4 18  1  0  0  0  0 
  5 19  1  0  0  0  0 
  5  6  1  0  0  0  0 
  6  1  1  0  0  0  0 
  6 21  1  1  0  0  0 
  7  5  1  0  0  0  0 
  8  7  2  0  0  0  0 
  9  7  1  0  0  0  0 
  9 22  1  0  0  0  0 
 11  1  1  0  0  0  0 
 13  2  1  0  0  0  0 
 14  2  1  0  0  0  0 
 16  3  1  0  0  0  0 
 17  4  1  0  0  0  0 
 20  5  1  0  0  0  0 
M  END 
>  <HBA> 
2 
 
>  <HBD> 
1 
 
>  <TPSA> 
29.1 
 
>  <cid> 
19242 
 
>  <dipole> 
3.69 
 
>  <excitation_energy_1> 
5.406 
 
>  <excitation_energy_2> 
5.616 
 
>  <excitation_energy_3> 
5.898 
 
>  <excitation_energy_4> 
6.05 
 
>  <homo_energy> 
-6.218 
 
>  <homo_lumo_gap> 
7.012 
 
>  <logP> 
1.251 
 
>  <lumo_energy> 
0.795 
 
>  <melting_point> 
43.92 
 
>  <molecular_refractivity> 
40.57 
 
>  <oscillator_strength_1> 
0.0023 
 
>  <oscillator_strength_2> 
0.0051 
 
>  <oscillator_strength_3> 
0.0022 
 
>  <oscillator_strength_4> 
0.0027 
 
>  <open_babel_can_smiles> 
C[C@H]1CCCN=C(C1)O 
 
>  <mulliken_charges> 
22 
1   -0.453526 
2   -0.284005 
3   -0.259726 
4   -0.146063 
5   -0.372115 
6   -0.070388 
7   0.482831 
8   -0.414366 
9   -0.585024 
10   0.148837 
11   0.142317 
12   0.14253 
13   0.141196 
14   0.135589 
15   0.134527 
16   0.129564 
17   0.147701 
18   0.138872 
19   0.133686 
20   0.16737 
21   0.141167 
22   0.399026 
 
>  <lowdin_charges> 
22 
1   -0.444746 
2   -0.294231 
3   -0.280045 
4   -0.202398 
5   -0.315036 
6   -0.125203 
7   0.126096 
8   -0.211139 
9   -0.378465 
10   0.15323 
11   0.147768 
12   0.148777 
13   0.144832 
14   0.148303 
15   0.143576 
16   0.141069 
17   0.150534 
18   0.141336 
19   0.149111 
20   0.161581 
21   0.146016 
22   0.349033 
 
$$$$ 
 
