PCCDB-ID:  10837 
public computational chemistry database (PCCDB) project, http://pccdb.org 
 
 20 20  0  0  0  0  0  0  0  0999 V2000 
   -2.0260    0.2948   -0.0251 C   0  0  0  0  0  0  0  0  0  0  0  0 
   -1.1720    1.0466   -0.8326 C   0  0  0  0  0  0  0  0  0  0  0  0 
   -1.4813   -0.5179    0.9733 C   0  0  0  0  0  0  0  0  0  0  0  0 
    0.2111    0.9830   -0.6560 C   0  0  0  0  0  0  0  0  0  0  0  0 
   -0.1028   -0.5817    1.1595 C   0  0  0  0  0  0  0  0  0  0  0  0 
    0.7688    0.1570    0.3393 C   0  0  0  0  0  0  0  0  0  0  0  0 
    3.0187   -0.1150   -0.3091 C   0  0  0  0  0  0  0  0  0  0  0  0 
    3.8249   -0.8902   -2.4909 N   0  0  0  0  0  0  0  0  0  0  0  0 
    2.1471    0.0953    0.6074 N   0  0  0  0  0  0  0  0  0  0  0  0 
    2.8290   -0.3490   -1.6484 N   0  0  0  0  0  0  0  0  0  0  0  0 
    4.3354   -0.1218    0.0190 O   0  0  0  0  0  0  0  0  0  0  0  0 
   -3.1021    0.3471   -0.1649 H   0  0  0  0  0  0  0  0  0  0  0  0 
   -1.5815    1.6943   -1.6040 H   0  0  0  0  0  0  0  0  0  0  0  0 
   -2.1356   -1.1025    1.6154 H   0  0  0  0  0  0  0  0  0  0  0  0 
    0.8665    1.5929   -1.2718 H   0  0  0  0  0  0  0  0  0  0  0  0 
    0.3267   -1.2030    1.9400 H   0  0  0  0  0  0  0  0  0  0  0  0 
    4.4994   -0.1523   -2.6864 H   0  0  0  0  0  0  0  0  0  0  0  0 
    4.3323   -1.6186   -1.9875 H   0  0  0  0  0  0  0  0  0  0  0  0 
    1.8854   -0.5776   -1.9303 H   0  0  0  0  0  0  0  0  0  0  0  0 
    4.3475    0.0716    0.9738 H   0  0  0  0  0  0  0  0  0  0  0  0 
  1  3  2  0  0  0  0 
  2  4  2  0  0  0  0 
  2  1  1  0  0  0  0 
  3  5  1  0  0  0  0 
  3 14  1  0  0  0  0 
  4  6  1  0  0  0  0 
  5 16  1  0  0  0  0 
  6  9  1  0  0  0  0 
  6  5  2  0  0  0  0 
  7 11  1  0  0  0  0 
  7  9  2  0  0  0  0 
  8 18  1  0  0  0  0 
  8 10  1  0  0  0  0 
 10  7  1  0  0  0  0 
 11 20  1  0  0  0  0 
 12  1  1  0  0  0  0 
 13  2  1  0  0  0  0 
 15  4  1  0  0  0  0 
 17  8  1  0  0  0  0 
 19 10  1  0  0  0  0 
M  END 
>  <HBA> 
4 
 
>  <HBD> 
3 
 
>  <TPSA> 
67.15 
 
>  <cid> 
10837 
 
>  <dipole> 
1.54 
 
>  <excitation_energy_1> 
4.799 
 
>  <excitation_energy_2> 
4.984 
 
>  <excitation_energy_3> 
5.034 
 
>  <excitation_energy_4> 
5.509 
 
>  <homo_energy> 
-5.597 
 
>  <homo_lumo_gap> 
5.668 
 
>  <logP> 
1.846 
 
>  <lumo_energy> 
0.071 
 
>  <melting_point> 
151.02 
 
>  <molecular_refractivity> 
41.85 
 
>  <oscillator_strength_1> 
0.0157 
 
>  <oscillator_strength_2> 
0.2251 
 
>  <oscillator_strength_3> 
0.0679 
 
>  <oscillator_strength_4> 
0.0001 
 
>  <open_babel_can_smiles> 
NN/C(=N\c1ccccc1)/O 
 
>  <mulliken_charges> 
20 
1   -0.132438 
2   -0.137712 
3   -0.136543 
4   -0.179806 
5   -0.149871 
6   0.241181 
7   0.678997 
8   -0.561427 
9   -0.566592 
10   -0.511453 
11   -0.609045 
12   0.123727 
13   0.126882 
14   0.126586 
15   0.134965 
16   0.126555 
17   0.329285 
18   0.322542 
19   0.352007 
20   0.422161 
 
>  <lowdin_charges> 
20 
1   -0.17282 
2   -0.154707 
3   -0.153939 
4   -0.20084 
5   -0.174578 
6   0.045892 
7   0.165485 
8   -0.455798 
9   -0.266833 
10   -0.242986 
11   -0.372457 
12   0.15369 
13   0.156924 
14   0.157767 
15   0.160743 
16   0.161216 
17   0.269252 
18   0.263508 
19   0.29306 
20   0.367422 
 
$$$$ 
 
