PCCDB-ID:  15112 
public computational chemistry database (PCCDB) project, http://pccdb.org 
 
 11 10  0  0  0  0  0  0  0  0999 V2000 
    1.0709   -0.0414    0.0418 C   0  0  0  0  0  0  0  0  0  0  0  0 
    3.2269   -0.9088    0.9352 C   0  0  0  0  0  0  0  0  0  0  0  0 
    3.1564    0.4962   -1.0001 C   0  0  0  0  0  0  0  0  0  0  0  0 
    3.7409    1.1898   -1.7371 N   0  0  0  0  0  0  0  0  0  0  0  0 
    2.4864   -0.3386   -0.1935 N   0  0  0  0  0  0  0  0  0  0  0  0 
    0.5708   -0.9581    0.3697 H   0  0  0  0  0  0  0  0  0  0  0  0 
    0.6130    0.2941   -0.8907 H   0  0  0  0  0  0  0  0  0  0  0  0 
    0.9306    0.7342    0.8091 H   0  0  0  0  0  0  0  0  0  0  0  0 
    2.7178   -1.8209    1.2621 H   0  0  0  0  0  0  0  0  0  0  0  0 
    3.2911   -0.2131    1.7849 H   0  0  0  0  0  0  0  0  0  0  0  0 
    4.2366   -1.1674    0.6103 H   0  0  0  0  0  0  0  0  0  0  0  0 
  1  6  1  0  0  0  0 
  1  8  1  0  0  0  0 
  2  9  1  0  0  0  0 
  2 10  1  0  0  0  0 
  3  5  1  0  0  0  0 
  4  3  3  0  0  0  0 
  5  1  1  0  0  0  0 
  5  2  1  0  0  0  0 
  7  1  1  0  0  0  0 
 11  2  1  0  0  0  0 
M  END 
>  <HBA> 
2 
 
>  <HBD> 
0 
 
>  <TPSA> 
27.03 
 
>  <cid> 
15112 
 
>  <dipole> 
4.73 
 
>  <excitation_energy_1> 
5.751 
 
>  <excitation_energy_2> 
5.839 
 
>  <excitation_energy_3> 
6.491 
 
>  <excitation_energy_4> 
6.814 
 
>  <homo_energy> 
-6.588 
 
>  <homo_lumo_gap> 
7.714 
 
>  <logP> 
0.029 
 
>  <lumo_energy> 
1.127 
 
>  <melting_point> 
11.97 
 
>  <molecular_refractivity> 
19.18 
 
>  <oscillator_strength_1> 
0.0286 
 
>  <oscillator_strength_2> 
0.0011 
 
>  <oscillator_strength_3> 
0.0004 
 
>  <oscillator_strength_4> 
0.0003 
 
>  <open_babel_can_smiles> 
CN(C#N)C 
 
>  <mulliken_charges> 
11 
1   -0.309362 
2   -0.309144 
3   0.49856 
4   -0.472886 
5   -0.441529 
6   0.167841 
7   0.18808 
8   0.161334 
9   0.167761 
10   0.161335 
11   0.188011 
 
>  <lowdin_charges> 
11 
1   -0.33898 
2   -0.338907 
3   -0.000709 
4   -0.180541 
5   -0.108312 
6   0.160751 
7   0.174954 
8   0.148691 
9   0.160509 
10   0.14869 
11   0.173853 
 
$$$$ 
 
