PCCDB-ID:  11612 
public computational chemistry database (PCCDB) project, http://pccdb.org 
 
 21 20  0  0  0  0  0  0  0  0999 V2000 
    2.4057   -0.1428    1.7067 C   0  0  0  0  0  0  0  0  0  0  0  0 
    4.6515    4.9305   -2.5080 C   0  0  0  0  0  0  0  0  0  0  0  0 
    3.1072   -0.4594    0.3747 C   0  0  0  0  0  0  0  0  0  0  0  0 
    4.6771    3.7660   -1.5134 C   0  0  0  0  0  0  0  0  0  0  0  0 
    3.0455    0.6827   -0.6036 C   0  0  0  0  0  0  0  0  0  0  0  0 
    4.0378    2.4811   -2.0749 C   0  0  0  0  0  0  0  0  0  0  0  0 
    4.0999    1.3234   -1.1158 C   0  0  0  0  0  0  0  0  0  0  0  0 
    2.4408   -1.0024    2.3859 H   0  0  0  0  0  0  0  0  0  0  0  0 
    1.3513    0.1135    1.5472 H   0  0  0  0  0  0  0  0  0  0  0  0 
    2.8818    0.7079    2.2069 H   0  0  0  0  0  0  0  0  0  0  0  0 
    5.1137    5.8289   -2.0833 H   0  0  0  0  0  0  0  0  0  0  0  0 
    3.6234    5.1876   -2.7915 H   0  0  0  0  0  0  0  0  0  0  0  0 
    5.1943    4.6790   -3.4276 H   0  0  0  0  0  0  0  0  0  0  0  0 
    2.6329   -1.3478   -0.0696 H   0  0  0  0  0  0  0  0  0  0  0  0 
    4.1546   -0.7289    0.5620 H   0  0  0  0  0  0  0  0  0  0  0  0 
    4.1521    4.0499   -0.5918 H   0  0  0  0  0  0  0  0  0  0  0  0 
    5.7152    3.5542   -1.2211 H   0  0  0  0  0  0  0  0  0  0  0  0 
    2.0424    1.0040   -0.8960 H   0  0  0  0  0  0  0  0  0  0  0  0 
    4.5574    2.2149   -3.0091 H   0  0  0  0  0  0  0  0  0  0  0  0 
    2.9928    2.6812   -2.3484 H   0  0  0  0  0  0  0  0  0  0  0  0 
    5.1023    1.0062   -0.8170 H   0  0  0  0  0  0  0  0  0  0  0  0 
  1 10  1  0  0  0  0 
  1  8  1  0  0  0  0 
  2 11  1  0  0  0  0 
  2  4  1  0  0  0  0 
  3 15  1  0  0  0  0 
  3  1  1  0  0  0  0 
  4 17  1  0  0  0  0 
  4 16  1  0  0  0  0 
  5  3  1  0  0  0  0 
  6  4  1  0  0  0  0 
  6  7  1  0  0  0  0 
  7 21  1  0  0  0  0 
  7  5  2  0  0  0  0 
  9  1  1  0  0  0  0 
 12  2  1  0  0  0  0 
 13  2  1  0  0  0  0 
 14  3  1  0  0  0  0 
 18  5  1  0  0  0  0 
 19  6  1  0  0  0  0 
 20  6  1  0  0  0  0 
M  END 
>  <HBA> 
0 
 
>  <HBD> 
0 
 
>  <TPSA> 
0.0 
 
>  <cid> 
11612 
 
>  <dipole> 
0.06 
 
>  <excitation_energy_1> 
6.172 
 
>  <excitation_energy_2> 
6.368 
 
>  <excitation_energy_3> 
6.412 
 
>  <excitation_energy_4> 
6.685 
 
>  <homo_energy> 
-6.392 
 
>  <homo_lumo_gap> 
7.252 
 
>  <logP> 
2.753 
 
>  <lumo_energy> 
0.86 
 
>  <melting_point> 
-17.44 
 
>  <molecular_refractivity> 
35.29 
 
>  <oscillator_strength_1> 
0.0357 
 
>  <oscillator_strength_2> 
0.0967 
 
>  <oscillator_strength_3> 
0.0033 
 
>  <oscillator_strength_4> 
0.0904 
 
>  <open_babel_can_smiles> 
CCC/C=C/CC 
 
>  <mulliken_charges> 
21 
1   -0.438662 
2   -0.44156 
3   -0.295091 
4   -0.245808 
5   -0.089599 
6   -0.294266 
7   -0.094554 
8   0.141853 
9   0.142449 
10   0.148973 
11   0.142852 
12   0.14196 
13   0.141245 
14   0.140249 
15   0.137319 
16   0.137835 
17   0.131034 
18   0.112032 
19   0.135868 
20   0.133486 
21   0.112386 
 
>  <lowdin_charges> 
21 
1   -0.442884 
2   -0.444634 
3   -0.267923 
4   -0.270341 
5   -0.1685 
6   -0.269964 
7   -0.16843 
8   0.149292 
9   0.145584 
10   0.150898 
11   0.150391 
12   0.145744 
13   0.146345 
14   0.147153 
15   0.143731 
16   0.142918 
17   0.138171 
18   0.142618 
19   0.1448 
20   0.142224 
21   0.142808 
 
$$$$ 
 
