PCCDB-ID:  12801 
public computational chemistry database (PCCDB) project, http://pccdb.org 
 
 18 19  0  0  0  0  0  0  0  0999 V2000 
    2.4391    0.6892    0.0331 C   0  0  0  0  0  0  0  0  0  0  0  0 
    2.4490   -0.7043   -0.0967 C   0  0  0  0  0  0  0  0  0  0  0  0 
    1.2323    1.3828    0.1116 C   0  0  0  0  0  0  0  0  0  0  0  0 
    1.2470   -1.3994   -0.1512 C   0  0  0  0  0  0  0  0  0  0  0  0 
   -1.3028    1.4055    0.1863 C   0  0  0  0  0  0  0  0  0  0  0  0 
    0.0177    0.6934    0.0583 C   0  0  0  0  0  0  0  0  0  0  0  0 
    0.0331   -0.7005   -0.0792 C   0  0  0  0  0  0  0  0  0  0  0  0 
   -2.4975    0.6287   -0.3273 C   0  0  0  0  0  0  0  0  0  0  0  0 
   -1.2283   -1.4715   -0.1551 C   0  0  0  0  0  0  0  0  0  0  0  0 
   -3.5239    1.1345   -0.6873 O   0  0  0  0  0  0  0  0  0  0  0  0 
   -1.3092   -2.6720   -0.1310 O   0  0  0  0  0  0  0  0  0  0  0  0 
   -2.4118   -0.7502   -0.3011 O   0  0  0  0  0  0  0  0  0  0  0  0 
    3.3766    1.2369    0.0714 H   0  0  0  0  0  0  0  0  0  0  0  0 
    3.3914   -1.2403   -0.1567 H   0  0  0  0  0  0  0  0  0  0  0  0 
    1.2319    2.4650    0.2145 H   0  0  0  0  0  0  0  0  0  0  0  0 
    1.2192   -2.4789   -0.2543 H   0  0  0  0  0  0  0  0  0  0  0  0 
   -1.3018    2.3735   -0.3227 H   0  0  0  0  0  0  0  0  0  0  0  0 
   -1.5122    1.6205    1.2461 H   0  0  0  0  0  0  0  0  0  0  0  0 
  1 13  1  0  0  0  0 
  1  3  2  0  0  0  0 
  2  1  1  0  0  0  0 
  3 15  1  0  0  0  0 
  4  2  2  0  0  0  0 
  4  7  1  0  0  0  0 
  5 18  1  0  0  0  0 
  6  3  1  0  0  0  0 
  6  5  1  0  0  0  0 
  7  6  2  0  0  0  0 
  8 12  1  0  0  0  0 
  8  5  1  0  0  0  0 
  9 11  2  0  0  0  0 
  9  7  1  0  0  0  0 
 10  8  2  0  0  0  0 
 12  9  1  0  0  0  0 
 14  2  1  0  0  0  0 
 16  4  1  0  0  0  0 
 17  5  1  0  0  0  0 
M  END 
>  <HBA> 
3 
 
>  <HBD> 
0 
 
>  <TPSA> 
43.37 
 
>  <cid> 
12801 
 
>  <dipole> 
5.98 
 
>  <excitation_energy_1> 
4.532 
 
>  <excitation_energy_2> 
4.74 
 
>  <excitation_energy_3> 
5.167 
 
>  <excitation_energy_4> 
5.333 
 
>  <homo_energy> 
-7.415 
 
>  <homo_lumo_gap> 
5.497 
 
>  <logP> 
0.926 
 
>  <lumo_energy> 
-1.918 
 
>  <melting_point> 
78.07 
 
>  <molecular_refractivity> 
40.77 
 
>  <oscillator_strength_1> 
0.0071 
 
>  <oscillator_strength_2> 
0.0194 
 
>  <oscillator_strength_3> 
0.0655 
 
>  <oscillator_strength_4> 
0.1011 
 
>  <open_babel_can_smiles> 
O=C1OC(=O)c2c(C1)cccc2 
 
>  <mulliken_charges> 
18 
1   -0.114673 
2   -0.134509 
3   -0.190205 
4   -0.158402 
5   -0.470797 
6   0.137149 
7   0.016459 
8   0.613153 
9   0.571766 
10   -0.417167 
11   -0.427153 
12   -0.45887 
13   0.148383 
14   0.148883 
15   0.141784 
16   0.175777 
17   0.20434 
18   0.21408 
 
>  <lowdin_charges> 
18 
1   -0.129037 
2   -0.152575 
3   -0.158755 
4   -0.115657 
5   -0.303054 
6   0.004876 
7   -0.064089 
8   0.21345 
9   0.205495 
10   -0.203259 
11   -0.206483 
12   -0.151345 
13   0.167422 
14   0.167888 
15   0.162252 
16   0.180945 
17   0.188554 
18   0.193372 
 
$$$$ 
 
