PCCDB-ID:  65773 
public computational chemistry database (PCCDB) project, http://pccdb.org 
 
 20 20  0  0  0  0  0  0  0  0999 V2000 
    1.0465    0.2840    0.5541 C   0  0  0  0  0  0  0  0  0  0  0  0 
    2.5398    0.2616    0.2168 C   0  0  0  0  0  0  0  0  0  0  0  0 
    2.8833   -0.8091   -0.8420 C   0  0  0  0  0  0  0  0  0  0  0  0 
    6.4871   -1.4091   -0.9153 C   0  0  0  0  0  0  0  0  0  0  0  0 
    6.6476   -0.5639   -1.9856 C   0  0  0  0  0  0  0  0  0  0  0  0 
    4.3516   -0.8797   -1.1402 C   0  0  0  0  0  0  0  0  0  0  0  0 
    7.9506   -0.2688   -2.6254 C   0  0  0  0  0  0  0  0  0  0  0  0 
    5.2131   -1.5781   -0.4517 N   0  0  0  0  0  0  0  0  0  0  0  0 
    8.9800   -0.7798   -2.2520 O   0  0  0  0  0  0  0  0  0  0  0  0 
    7.9632    0.6089   -3.6638 O   0  0  0  0  0  0  0  0  0  0  0  0 
    5.0793    0.0608   -2.4448 S   0  0  0  0  0  0  0  0  0  0  0  0 
    0.8286    1.0448    1.3113 H   0  0  0  0  0  0  0  0  0  0  0  0 
    0.7137   -0.6838    0.9475 H   0  0  0  0  0  0  0  0  0  0  0  0 
    0.4401    0.5109   -0.3312 H   0  0  0  0  0  0  0  0  0  0  0  0 
    3.1285    0.0604    1.1198 H   0  0  0  0  0  0  0  0  0  0  0  0 
    2.8553    1.2467   -0.1506 H   0  0  0  0  0  0  0  0  0  0  0  0 
    2.3199   -0.6144   -1.7626 H   0  0  0  0  0  0  0  0  0  0  0  0 
    2.5803   -1.7961   -0.4743 H   0  0  0  0  0  0  0  0  0  0  0  0 
    7.3121   -1.9312   -0.4454 H   0  0  0  0  0  0  0  0  0  0  0  0 
    7.0760    0.9595   -3.8483 H   0  0  0  0  0  0  0  0  0  0  0  0 
  1 13  1  0  0  0  0 
  1 12  1  0  0  0  0 
  2  1  1  0  0  0  0 
  2 15  1  0  0  0  0 
  3 18  1  0  0  0  0 
  3  2  1  0  0  0  0 
  4  8  1  0  0  0  0 
  4 19  1  0  0  0  0 
  5  4  2  0  0  0  0 
  6  3  1  0  0  0  0 
  6  8  2  0  0  0  0 
  7  9  2  0  0  0  0 
  7  5  1  0  0  0  0 
 10  7  1  0  0  0  0 
 11  5  1  0  0  0  0 
 11  6  1  0  0  0  0 
 14  1  1  0  0  0  0 
 16  2  1  0  0  0  0 
 17  3  1  0  0  0  0 
 20 10  1  0  0  0  0 
M  END 
>  <HBA> 
4 
 
>  <HBD> 
1 
 
>  <TPSA> 
78.43 
 
>  <cid> 
65773 
 
>  <dipole> 
5.33 
 
>  <excitation_energy_1> 
4.579 
 
>  <excitation_energy_2> 
4.787 
 
>  <excitation_energy_3> 
4.835 
 
>  <excitation_energy_4> 
5.244 
 
>  <homo_energy> 
-7.097 
 
>  <homo_lumo_gap> 
5.219 
 
>  <logP> 
1.794 
 
>  <lumo_energy> 
-1.878 
 
>  <melting_point> 
112.89 
 
>  <molecular_refractivity> 
43.65 
 
>  <oscillator_strength_1> 
0.0011 
 
>  <oscillator_strength_2> 
0.0007 
 
>  <oscillator_strength_3> 
0.2568 
 
>  <oscillator_strength_4> 
0.0028 
 
>  <open_babel_can_smiles> 
CCCc1ncc(s1)C(=O)O 
 
>  <mulliken_charges> 
20 
1   -0.445157 
2   -0.253375 
3   -0.317583 
4   0.068539 
5   -0.262247 
6   0.109654 
7   0.605974 
8   -0.401875 
9   -0.443774 
10   -0.579393 
11   0.212943 
12   0.154723 
13   0.151115 
14   0.146454 
15   0.162458 
16   0.145345 
17   0.156791 
18   0.181198 
19   0.190665 
20   0.417546 
 
>  <lowdin_charges> 
20 
1   -0.44514 
2   -0.267711 
3   -0.275229 
4   -0.084946 
5   -0.233884 
6   -0.055587 
7   0.202865 
8   -0.152557 
9   -0.23728 
10   -0.351216 
11   0.260079 
12   0.157809 
13   0.151507 
14   0.149579 
15   0.155553 
16   0.146383 
17   0.159312 
18   0.173127 
19   0.189793 
20   0.357544 
 
$$$$ 
 
