PCCDB-ID:  14104 
public computational chemistry database (PCCDB) project, http://pccdb.org 
 
 28 28  0  0  0  0  0  0  0  0999 V2000 
    1.1480   -0.5130   -0.7633 C   0  0  0  0  0  0  0  0  0  0  0  0 
    3.5282   -1.3738   -0.7150 C   0  0  0  0  0  0  0  0  0  0  0  0 
    4.2700    5.2180   -1.5239 C   0  0  0  0  0  0  0  0  0  0  0  0 
    1.3409    2.9762    2.0894 C   0  0  0  0  0  0  0  0  0  0  0  0 
    4.2925    2.7227   -1.9709 C   0  0  0  0  0  0  0  0  0  0  0  0 
    3.8873    1.4202   -1.6606 C   0  0  0  0  0  0  0  0  0  0  0  0 
    3.0189    3.5415   -0.1062 C   0  0  0  0  0  0  0  0  0  0  0  0 
    2.5774   -0.2670   -0.2352 C   0  0  0  0  0  0  0  0  0  0  0  0 
    3.8617    3.7996   -1.1986 C   0  0  0  0  0  0  0  0  0  0  0  0 
    3.0484    1.1401   -0.5831 C   0  0  0  0  0  0  0  0  0  0  0  0 
    2.6137    2.2398    0.1935 C   0  0  0  0  0  0  0  0  0  0  0  0 
    1.7856    1.9308    1.2432 O   0  0  0  0  0  0  0  0  0  0  0  0 
    0.7903   -1.5066   -0.4656 H   0  0  0  0  0  0  0  0  0  0  0  0 
    1.1239   -0.4583   -1.8585 H   0  0  0  0  0  0  0  0  0  0  0  0 
    0.4509    0.2323   -0.3690 H   0  0  0  0  0  0  0  0  0  0  0  0 
    3.1992   -2.3436   -0.3245 H   0  0  0  0  0  0  0  0  0  0  0  0 
    4.5550   -1.2018   -0.3733 H   0  0  0  0  0  0  0  0  0  0  0  0 
    3.5447   -1.4553   -1.8086 H   0  0  0  0  0  0  0  0  0  0  0  0 
    5.0961    5.2393   -2.2419 H   0  0  0  0  0  0  0  0  0  0  0  0 
    4.5900    5.7616   -0.6269 H   0  0  0  0  0  0  0  0  0  0  0  0 
    3.4379    5.7844   -1.9630 H   0  0  0  0  0  0  0  0  0  0  0  0 
    0.7403    3.7145    1.5413 H   0  0  0  0  0  0  0  0  0  0  0  0 
    2.1812    3.4883    2.5768 H   0  0  0  0  0  0  0  0  0  0  0  0 
    0.7186    2.5010    2.8505 H   0  0  0  0  0  0  0  0  0  0  0  0 
    4.9504    2.8939   -2.8194 H   0  0  0  0  0  0  0  0  0  0  0  0 
    4.2474    0.6023   -2.2773 H   0  0  0  0  0  0  0  0  0  0  0  0 
    2.6830    4.3736    0.5037 H   0  0  0  0  0  0  0  0  0  0  0  0 
    2.5284   -0.3243    0.8591 H   0  0  0  0  0  0  0  0  0  0  0  0 
  1 13  1  0  0  0  0 
  1 15  1  0  0  0  0 
  1  8  1  0  0  0  0 
  2 17  1  0  0  0  0 
  2 16  1  0  0  0  0 
  2  8  1  0  0  0  0 
  3  9  1  0  0  0  0 
  3 20  1  0  0  0  0 
  4 23  1  0  0  0  0 
  4 24  1  0  0  0  0 
  5  6  2  0  0  0  0 
  5  9  1  0  0  0  0 
  6 10  1  0  0  0  0 
  7 11  1  0  0  0  0 
  7 27  1  0  0  0  0 
  8 28  1  0  0  0  0 
  9  7  2  0  0  0  0 
 10  8  1  0  0  0  0 
 10 11  2  0  0  0  0 
 11 12  1  0  0  0  0 
 12  4  1  0  0  0  0 
 14  1  1  0  0  0  0 
 18  2  1  0  0  0  0 
 19  3  1  0  0  0  0 
 21  3  1  0  0  0  0 
 22  4  1  0  0  0  0 
 25  5  1  0  0  0  0 
 26  6  1  0  0  0  0 
M  END 
>  <HBA> 
1 
 
>  <HBD> 
0 
 
>  <TPSA> 
9.23 
 
>  <cid> 
14104 
 
>  <dipole> 
1.5 
 
>  <excitation_energy_1> 
4.947 
 
>  <excitation_energy_2> 
5.27 
 
>  <excitation_energy_3> 
5.569 
 
>  <excitation_energy_4> 
5.635 
 
>  <homo_energy> 
-5.638 
 
>  <homo_lumo_gap> 
5.872 
 
>  <logP> 
3.127 
 
>  <lumo_energy> 
0.234 
 
>  <melting_point> 
16.77 
 
>  <molecular_refractivity> 
52.48 
 
>  <oscillator_strength_1> 
0.0612 
 
>  <oscillator_strength_2> 
0.005 
 
>  <oscillator_strength_3> 
0.0471 
 
>  <oscillator_strength_4> 
0.02 
 
>  <open_babel_can_smiles> 
COc1cc(C)ccc1C(C)C 
 
>  <mulliken_charges> 
28 
1   -0.437458 
2   -0.452571 
3   -0.530241 
4   -0.211651 
5   -0.187435 
6   -0.200907 
7   -0.248361 
8   -0.135294 
9   0.175423 
10   0.119184 
11   0.324974 
12   -0.514142 
13   0.134834 
14   0.138836 
15   0.155449 
16   0.140533 
17   0.147286 
18   0.140829 
19   0.154872 
20   0.155054 
21   0.161263 
22   0.150707 
23   0.150939 
24   0.167033 
25   0.113687 
26   0.122268 
27   0.119772 
28   0.14512 
 
>  <lowdin_charges> 
28 
1   -0.439703 
2   -0.441273 
3   -0.44349 
4   -0.281976 
5   -0.189194 
6   -0.162092 
7   -0.22604 
8   -0.115843 
9   0.005291 
10   -0.032197 
11   0.096632 
12   -0.202602 
13   0.144235 
14   0.143338 
15   0.155878 
16   0.149529 
17   0.150057 
18   0.142533 
19   0.157254 
20   0.15719 
21   0.160293 
22   0.14565 
23   0.145848 
24   0.162369 
25   0.151827 
26   0.15821 
27   0.158365 
28   0.149911 
 
$$$$ 
 
