PCCDB-ID:  11364 
public computational chemistry database (PCCDB) project, http://pccdb.org 
 
 22 22  0  0  0  0  0  0  0  0999 V2000 
    3.1492    0.2035    1.2058 C   0  0  0  0  0  0  0  0  0  0  0  0 
    4.3382   -0.8043   -1.1709 C   0  0  0  0  0  0  0  0  0  0  0  0 
    0.7123   -2.0196   -4.4871 C   0  0  0  0  0  0  0  0  0  0  0  0 
    0.2934   -0.8753   -3.8048 C   0  0  0  0  0  0  0  0  0  0  0  0 
    1.8414   -2.7034   -4.0397 C   0  0  0  0  0  0  0  0  0  0  0  0 
    0.9907   -0.4102   -2.6919 C   0  0  0  0  0  0  0  0  0  0  0  0 
    2.5424   -2.2507   -2.9213 C   0  0  0  0  0  0  0  0  0  0  0  0 
    2.2520   -0.1788    0.0337 C   0  0  0  0  0  0  0  0  0  0  0  0 
    2.1260   -1.0989   -2.2389 C   0  0  0  0  0  0  0  0  0  0  0  0 
    2.8858   -0.6263   -1.1214 N   0  0  0  0  0  0  0  0  0  0  0  0 
    1.0366   -0.0838    0.1249 O   0  0  0  0  0  0  0  0  0  0  0  0 
    3.7632    1.0823    0.9752 H   0  0  0  0  0  0  0  0  0  0  0  0 
    3.8249   -0.6070    1.4999 H   0  0  0  0  0  0  0  0  0  0  0  0 
    2.4937    0.4461    2.0426 H   0  0  0  0  0  0  0  0  0  0  0  0 
    4.8392   -0.0006   -0.6296 H   0  0  0  0  0  0  0  0  0  0  0  0 
    4.6625   -0.7589   -2.2123 H   0  0  0  0  0  0  0  0  0  0  0  0 
    4.6658   -1.7633   -0.7461 H   0  0  0  0  0  0  0  0  0  0  0  0 
    0.1635   -2.3734   -5.3554 H   0  0  0  0  0  0  0  0  0  0  0  0 
   -0.5843   -0.3311   -4.1435 H   0  0  0  0  0  0  0  0  0  0  0  0 
    2.1804   -3.5987   -4.5543 H   0  0  0  0  0  0  0  0  0  0  0  0 
    0.6558    0.4742   -2.1677 H   0  0  0  0  0  0  0  0  0  0  0  0 
    3.4083   -2.8056   -2.5740 H   0  0  0  0  0  0  0  0  0  0  0  0 
  1 13  1  0  0  0  0 
  1 14  1  0  0  0  0 
  2 10  1  0  0  0  0 
  2 17  1  0  0  0  0 
  2 15  1  0  0  0  0 
  3  5  2  0  0  0  0 
  3  4  1  0  0  0  0 
  4  6  2  0  0  0  0 
  5  7  1  0  0  0  0 
  6  9  1  0  0  0  0 
  6 21  1  0  0  0  0 
  7 22  1  0  0  0  0 
  7  9  2  0  0  0  0 
  8 11  2  0  0  0  0 
  8  1  1  0  0  0  0 
  9 10  1  0  0  0  0 
 10  8  1  0  0  0  0 
 12  1  1  0  0  0  0 
 16  2  1  0  0  0  0 
 18  3  1  0  0  0  0 
 19  4  1  0  0  0  0 
 20  5  1  0  0  0  0 
M  END 
>  <HBA> 
2 
 
>  <HBD> 
0 
 
>  <TPSA> 
20.31 
 
>  <cid> 
11364 
 
>  <dipole> 
3.53 
 
>  <excitation_energy_1> 
4.931 
 
>  <excitation_energy_2> 
5.086 
 
>  <excitation_energy_3> 
5.182 
 
>  <excitation_energy_4> 
5.388 
 
>  <homo_energy> 
-5.924 
 
>  <homo_lumo_gap> 
5.788 
 
>  <logP> 
1.669 
 
>  <lumo_energy> 
-0.136 
 
>  <melting_point> 
33.39 
 
>  <molecular_refractivity> 
45.66 
 
>  <oscillator_strength_1> 
0.0356 
 
>  <oscillator_strength_2> 
0.0994 
 
>  <oscillator_strength_3> 
0.0945 
 
>  <oscillator_strength_4> 
0.0112 
 
>  <open_babel_can_smiles> 
CN(c1ccccc1)C(=O)C 
 
>  <mulliken_charges> 
22 
1   -0.551166 
2   -0.327089 
3   -0.124365 
4   -0.146463 
5   -0.140081 
6   -0.125672 
7   -0.168598 
8   0.573343 
9   0.295984 
10   -0.508578 
11   -0.489435 
12   0.171951 
13   0.167054 
14   0.189917 
15   0.169575 
16   0.178645 
17   0.161292 
18   0.127417 
19   0.131998 
20   0.1286 
21   0.158041 
22   0.12763 
 
>  <lowdin_charges> 
22 
1   -0.474387 
2   -0.3531 
3   -0.164769 
4   -0.152884 
5   -0.154985 
6   -0.156035 
7   -0.184841 
8   0.163613 
9   0.053786 
10   -0.094239 
11   -0.289873 
12   0.168591 
13   0.166499 
14   0.180601 
15   0.164982 
16   0.167522 
17   0.148132 
18   0.15795 
19   0.159662 
20   0.157776 
21   0.176845 
22   0.159153 
 
$$$$ 
 
