PCCDB-ID:  21308 
public computational chemistry database (PCCDB) project, http://pccdb.org 
 
 23 24  0  0  1  0  0  0  0  0999 V2000 
   -1.2670   -0.7627   -0.5505 C   0  0  0  0  0  0  0  0  0  0  0  0 
   -1.2459    0.8020   -0.5050 C   0  0  0  0  0  0  0  0  0  0  0  0 
   -0.0346   -0.0420    1.3733 C   0  0  0  0  0  0  0  0  0  0  0  0 
    1.2438   -0.8142   -0.4925 C   0  0  0  0  0  0  0  0  0  0  0  0 
    2.5674    1.3196    0.0662 C   0  0  0  0  0  0  0  0  0  0  0  0 
   -0.0374   -1.1549    0.3038 C   0  0  2  0  0  0  0  0  0  0  0  0 
    0.0086    1.1113    0.3459 C   0  0  1  0  0  0  0  0  0  0  0  0 
    1.2619    0.7525   -0.4969 C   0  0  2  0  0  0  0  0  0  0  0  0 
    2.5985    2.7431    0.1082 O   0  0  0  0  0  0  0  0  0  0  0  0 
   -1.2011   -1.1596   -1.5701 H   0  0  0  0  0  0  0  0  0  0  0  0 
   -2.1889   -1.1585   -0.1090 H   0  0  0  0  0  0  0  0  0  0  0  0 
   -2.1486    1.1942   -0.0223 H   0  0  0  0  0  0  0  0  0  0  0  0 
   -1.1903    1.2534   -1.5020 H   0  0  0  0  0  0  0  0  0  0  0  0 
    0.8371   -0.0787    2.0361 H   0  0  0  0  0  0  0  0  0  0  0  0 
   -0.9403   -0.0309    1.9907 H   0  0  0  0  0  0  0  0  0  0  0  0 
    1.2353   -1.2407   -1.5018 H   0  0  0  0  0  0  0  0  0  0  0  0 
    2.1327   -1.2110    0.0172 H   0  0  0  0  0  0  0  0  0  0  0  0 
    3.4189    0.9216   -0.5119 H   0  0  0  0  0  0  0  0  0  0  0  0 
    2.7084    0.9986    1.1042 H   0  0  0  0  0  0  0  0  0  0  0  0 
   -0.0650   -2.1847    0.6731 H   0  0  0  0  0  0  0  0  0  0  0  0 
    0.0424    2.1269    0.7482 H   0  0  0  0  0  0  0  0  0  0  0  0 
    1.1490    1.1396   -1.5211 H   0  0  0  0  0  0  0  0  0  0  0  0 
    2.4963    3.0619   -0.8024 H   0  0  0  0  0  0  0  0  0  0  0  0 
  1  2  1  0  0  0  0 
  1 11  1  0  0  0  0 
  1  6  1  0  0  0  0 
  2 12  1  0  0  0  0 
  2  7  1  0  0  0  0 
  3 15  1  0  0  0  0 
  3 14  1  0  0  0  0 
  4 17  1  0  0  0  0 
  4  6  1  0  0  0  0 
  5  9  1  0  0  0  0 
  5 19  1  0  0  0  0 
  6 20  1  1  0  0  0 
  6  3  1  0  0  0  0 
  7 21  1  1  0  0  0 
  7  3  1  0  0  0  0 
  8 22  1  6  0  0  0 
  8  4  1  0  0  0  0 
  8  5  1  0  0  0  0 
  8  7  1  0  0  0  0 
 10  1  1  0  0  0  0 
 13  2  1  0  0  0  0 
 16  4  1  0  0  0  0 
 18  5  1  0  0  0  0 
 23  9  1  0  0  0  0 
M  END 
>  <HBA> 
1 
 
>  <HBD> 
1 
 
>  <TPSA> 
20.23 
 
>  <cid> 
21308 
 
>  <dipole> 
1.59 
 
>  <excitation_energy_1> 
6.304 
 
>  <excitation_energy_2> 
6.842 
 
>  <excitation_energy_3> 
7.153 
 
>  <excitation_energy_4> 
7.199 
 
>  <homo_energy> 
-7.007 
 
>  <homo_lumo_gap> 
9.015 
 
>  <logP> 
1.415 
 
>  <lumo_energy> 
2.008 
 
>  <melting_point> 
35.88 
 
>  <molecular_refractivity> 
37.5 
 
>  <oscillator_strength_1> 
0.0026 
 
>  <oscillator_strength_2> 
0.0041 
 
>  <oscillator_strength_3> 
0.0244 
 
>  <oscillator_strength_4> 
0.0285 
 
>  <open_babel_can_smiles> 
OC[C@H]1C[C@H]2C[C@@H]1CC2 
 
>  <mulliken_charges> 
23 
1   -0.269879 
2   -0.273873 
3   -0.276529 
4   -0.286373 
5   -0.040845 
6   -0.09822 
7   -0.096339 
8   -0.10223 
9   -0.615054 
10   0.130387 
11   0.134586 
12   0.13464 
13   0.128665 
14   0.133184 
15   0.131872 
16   0.132905 
17   0.133121 
18   0.118576 
19   0.143533 
20   0.115195 
21   0.131646 
22   0.105944 
23   0.385087 
 
>  <lowdin_charges> 
23 
1   -0.28583 
2   -0.284978 
3   -0.287504 
4   -0.285055 
5   -0.138856 
6   -0.131187 
7   -0.135913 
8   -0.1499 
9   -0.467144 
10   0.140415 
11   0.144296 
12   0.14445 
13   0.139671 
14   0.14275 
15   0.144154 
16   0.143096 
17   0.143616 
18   0.126924 
19   0.1436 
20   0.138873 
21   0.147824 
22   0.128877 
23   0.337819 
 
$$$$ 
 
