PCCDB-ID:  25313 
public computational chemistry database (PCCDB) project, http://pccdb.org 
 
 27 27  0  0  1  0  0  0  0  0999 V2000 
    3.8074    0.9584   -4.3573 C   0  0  0  0  0  0  0  0  0  0  0  0 
    4.9214    1.0979   -0.1967 C   0  0  0  0  0  0  0  0  0  0  0  0 
    6.9972   -3.6317   -0.6067 C   0  0  0  0  0  0  0  0  0  0  0  0 
    6.2290   -2.9732    0.3499 C   0  0  0  0  0  0  0  0  0  0  0  0 
    7.4093   -2.9435   -1.7512 C   0  0  0  0  0  0  0  0  0  0  0  0 
    5.8682   -1.6355    0.1646 C   0  0  0  0  0  0  0  0  0  0  0  0 
    7.0543   -1.6106   -1.9308 C   0  0  0  0  0  0  0  0  0  0  0  0 
    4.5912    1.4529   -3.1678 C   0  0  0  0  0  0  0  0  0  0  0  0 
    6.2747   -0.9398   -0.9766 C   0  0  0  0  0  0  0  0  0  0  0  0 
    7.1873    1.4026   -1.2745 C   0  0  0  0  0  0  0  0  0  0  0  0 
    5.8939    0.5161   -1.2291 C   0  0  2  0  0  0  0  0  0  0  0  0 
    4.6204    2.6245   -2.8153 O   0  0  0  0  0  0  0  0  0  0  0  0 
    8.2394    0.9974   -0.8443 O   0  0  0  0  0  0  0  0  0  0  0  0 
    7.0509    2.6498   -1.7370 O   0  0  0  0  0  0  0  0  0  0  0  0 
    5.2357    0.4463   -2.5657 O   0  0  0  0  0  0  0  0  0  0  0  0 
    3.4268    1.8095   -4.9226 H   0  0  0  0  0  0  0  0  0  0  0  0 
    2.9712    0.3401   -4.0128 H   0  0  0  0  0  0  0  0  0  0  0  0 
    4.4379    0.3285   -4.9912 H   0  0  0  0  0  0  0  0  0  0  0  0 
    5.3976    1.1026    0.7878 H   0  0  0  0  0  0  0  0  0  0  0  0 
    4.0130    0.4906   -0.1463 H   0  0  0  0  0  0  0  0  0  0  0  0 
    4.6449    2.1223   -0.4451 H   0  0  0  0  0  0  0  0  0  0  0  0 
    7.2775   -4.6717   -0.4633 H   0  0  0  0  0  0  0  0  0  0  0  0 
    5.9047   -3.4955    1.2458 H   0  0  0  0  0  0  0  0  0  0  0  0 
    8.0141   -3.4451   -2.5017 H   0  0  0  0  0  0  0  0  0  0  0  0 
    5.2701   -1.1476    0.9263 H   0  0  0  0  0  0  0  0  0  0  0  0 
    7.3859   -1.0818   -2.8188 H   0  0  0  0  0  0  0  0  0  0  0  0 
    6.1305    2.8175   -2.0602 H   0  0  0  0  0  0  0  0  0  0  0  0 
  1 17  1  0  0  0  0 
  1  8  1  0  0  0  0 
  2 20  1  0  0  0  0 
  2 19  1  0  0  0  0 
  3 22  1  0  0  0  0 
  3  4  2  0  0  0  0 
  4 23  1  0  0  0  0 
  5  3  1  0  0  0  0 
  6  4  1  0  0  0  0 
  6 25  1  0  0  0  0 
  7  5  2  0  0  0  0 
  7  9  1  0  0  0  0 
  8 12  2  0  0  0  0 
  8 15  1  0  0  0  0 
  9  6  2  0  0  0  0 
 10 11  1  0  0  0  0 
 10 13  2  0  0  0  0 
 11 15  1  6  0  0  0 
 11  9  1  0  0  0  0 
 11  2  1  0  0  0  0 
 14 10  1  0  0  0  0 
 16  1  1  0  0  0  0 
 18  1  1  0  0  0  0 
 21  2  1  0  0  0  0 
 24  5  1  0  0  0  0 
 26  7  1  0  0  0  0 
 27 14  1  0  0  0  0 
M  END 
>  <HBA> 
4 
 
>  <HBD> 
1 
 
>  <TPSA> 
63.6 
 
>  <cid> 
25313 
 
>  <dipole> 
5.06 
 
>  <excitation_energy_1> 
5.217 
 
>  <excitation_energy_2> 
5.32 
 
>  <excitation_energy_3> 
5.397 
 
>  <excitation_energy_4> 
5.642 
 
>  <homo_energy> 
-6.789 
 
>  <homo_lumo_gap> 
6.065 
 
>  <logP> 
1.55 
 
>  <lumo_energy> 
-0.724 
 
>  <melting_point> 
101.04 
 
>  <molecular_refractivity> 
53.58 
 
>  <oscillator_strength_1> 
0.0065 
 
>  <oscillator_strength_2> 
0.0005 
 
>  <oscillator_strength_3> 
0.0189 
 
>  <oscillator_strength_4> 
0.0132 
 
>  <open_babel_can_smiles> 
OC(=O)[C@](c1ccccc1)(OC(=O)C)C 
 
>  <mulliken_charges> 
27 
1   -0.517148 
2   -0.494804 
3   -0.121157 
4   -0.134715 
5   -0.13782 
6   -0.181882 
7   -0.132601 
8   0.623579 
9   0.174639 
10   0.602356 
11   0.087864 
12   -0.502257 
13   -0.436306 
14   -0.597842 
15   -0.469574 
16   0.191602 
17   0.193744 
18   0.193902 
19   0.184053 
20   0.170308 
21   0.186044 
22   0.133218 
23   0.132612 
24   0.134564 
25   0.129081 
26   0.135984 
27   0.452559 
 
>  <lowdin_charges> 
27 
1   -0.460918 
2   -0.455461 
3   -0.147614 
4   -0.155915 
5   -0.153878 
6   -0.163007 
7   -0.136597 
8   0.215495 
9   -0.00452 
10   0.174274 
11   0.108336 
12   -0.28575 
13   -0.23292 
14   -0.354849 
15   -0.180604 
16   0.181576 
17   0.18619 
18   0.186041 
19   0.175041 
20   0.165461 
21   0.172806 
22   0.158423 
23   0.159816 
24   0.161664 
25   0.161278 
26   0.162967 
27   0.362663 
 
$$$$ 
 
