PCCDB-ID:  12605 
public computational chemistry database (PCCDB) project, http://pccdb.org 
 
 26 28  0  0  0  0  0  0  0  0999 V2000 
   -3.5510   -0.7119   -0.0369 C   0  0  0  0  0  0  0  0  0  0  0  0 
   -3.5567    0.7153   -0.0356 C   0  0  0  0  0  0  0  0  0  0  0  0 
   -2.3688   -1.4054   -0.0249 C   0  0  0  0  0  0  0  0  0  0  0  0 
   -2.3827    1.4229   -0.0233 C   0  0  0  0  0  0  0  0  0  0  0  0 
    3.5860   -0.6696    0.0504 C   0  0  0  0  0  0  0  0  0  0  0  0 
    2.4196   -1.3880    0.0552 C   0  0  0  0  0  0  0  0  0  0  0  0 
    3.5955    0.7574    0.0093 C   0  0  0  0  0  0  0  0  0  0  0  0 
   -1.1238   -0.7070   -0.0110 C   0  0  0  0  0  0  0  0  0  0  0  0 
   -1.1303    0.7378   -0.0126 C   0  0  0  0  0  0  0  0  0  0  0  0 
    1.1678   -0.7067    0.0189 C   0  0  0  0  0  0  0  0  0  0  0  0 
    2.3982    1.4604    0.0042 C   0  0  0  0  0  0  0  0  0  0  0  0 
    1.1621    0.7432    0.0050 C   0  0  0  0  0  0  0  0  0  0  0  0 
    4.7982    1.4746    0.0169 N   0  0  0  0  0  0  0  0  0  0  0  0 
    2.4017    2.8636   -0.0535 N   0  0  0  0  0  0  0  0  0  0  0  0 
    0.0254   -1.4049    0.0085 N   0  0  0  0  0  0  0  0  0  0  0  0 
    0.0148    1.4397   -0.0042 N   0  0  0  0  0  0  0  0  0  0  0  0 
   -4.4968   -1.2465   -0.0471 H   0  0  0  0  0  0  0  0  0  0  0  0 
   -4.5075    1.2414   -0.0451 H   0  0  0  0  0  0  0  0  0  0  0  0 
   -2.3358   -2.4906   -0.0244 H   0  0  0  0  0  0  0  0  0  0  0  0 
   -2.3648    2.5085   -0.0236 H   0  0  0  0  0  0  0  0  0  0  0  0 
    4.5427   -1.1879    0.0710 H   0  0  0  0  0  0  0  0  0  0  0  0 
    2.4128   -2.4725    0.0756 H   0  0  0  0  0  0  0  0  0  0  0  0 
    5.6083    0.9272   -0.2503 H   0  0  0  0  0  0  0  0  0  0  0  0 
    4.7412    2.3302   -0.5301 H   0  0  0  0  0  0  0  0  0  0  0  0 
    2.9890    3.2828    0.6641 H   0  0  0  0  0  0  0  0  0  0  0  0 
    1.4502    3.2174    0.0123 H   0  0  0  0  0  0  0  0  0  0  0  0 
  1  2  2  0  0  0  0 
  1  3  1  0  0  0  0 
  2  4  1  0  0  0  0 
  3 19  1  0  0  0  0 
  3  8  2  0  0  0  0 
  4  9  2  0  0  0  0 
  5  6  2  0  0  0  0 
  5 21  1  0  0  0  0 
  6 22  1  0  0  0  0 
  7 13  1  0  0  0  0 
  7  5  1  0  0  0  0 
  8 15  1  0  0  0  0 
  9  8  1  0  0  0  0 
  9 16  1  0  0  0  0 
 10  6  1  0  0  0  0 
 11 12  1  0  0  0  0 
 11  7  2  0  0  0  0 
 12 10  1  0  0  0  0 
 14 11  1  0  0  0  0 
 14 26  1  0  0  0  0 
 14 25  1  0  0  0  0 
 15 10  2  0  0  0  0 
 16 12  2  0  0  0  0 
 17  1  1  0  0  0  0 
 18  2  1  0  0  0  0 
 20  4  1  0  0  0  0 
 23 13  1  0  0  0  0 
 24 13  1  0  0  0  0 
M  END 
>  <HBA> 
4 
 
>  <HBD> 
2 
 
>  <TPSA> 
77.82 
 
>  <cid> 
12605 
 
>  <dipole> 
1.77 
 
>  <excitation_energy_1> 
2.341 
 
>  <excitation_energy_2> 
3.275 
 
>  <excitation_energy_3> 
3.566 
 
>  <excitation_energy_4> 
3.774 
 
>  <homo_energy> 
-4.982 
 
>  <homo_lumo_gap> 
2.849 
 
>  <logP> 
3.11 
 
>  <lumo_energy> 
-2.133 
 
>  <melting_point> 
224.32 
 
>  <molecular_refractivity> 
65.85 
 
>  <oscillator_strength_1> 
0.0322 
 
>  <oscillator_strength_2> 
0.0013 
 
>  <oscillator_strength_3> 
0.0562 
 
>  <oscillator_strength_4> 
0.0119 
 
>  <open_babel_can_smiles> 
Nc1c(N)ccc2c1nc1ccccc1n2 
 
>  <mulliken_charges> 
26 
1   -0.138235 
2   -0.136631 
3   -0.153492 
4   -0.157094 
5   -0.172528 
6   -0.169601 
7   0.264408 
8   0.267605 
9   0.299246 
10   0.28919 
11   0.1975 
12   0.280346 
13   -0.803081 
14   -0.815048 
15   -0.568576 
16   -0.626309 
17   0.135445 
18   0.135641 
19   0.145013 
20   0.139281 
21   0.127977 
22   0.141656 
23   0.320776 
24   0.332655 
25   0.320829 
26   0.343026 
 
>  <lowdin_charges> 
26 
1   -0.156832 
2   -0.150372 
3   -0.14919 
4   -0.156563 
5   -0.165417 
6   -0.16857 
7   0.024632 
8   0.02158 
9   0.030851 
10   0.027685 
11   0.001465 
12   0.014106 
13   -0.490107 
14   -0.50049 
15   -0.125512 
16   -0.152909 
17   0.161501 
18   0.161397 
19   0.16753 
20   0.164518 
21   0.158451 
22   0.16808 
23   0.275807 
24   0.28071 
25   0.275194 
26   0.282456 
 
$$$$ 
 
