PCCDB-ID:  20656 
public computational chemistry database (PCCDB) project, http://pccdb.org 
 
 45 45  0  0  1  0  0  0  0  0999 V2000 
    5.2926    4.8491   -4.7955 C   0  0  0  0  0  0  0  0  0  0  0  0 
    9.4938    3.0910    6.3288 C   0  0  0  0  0  0  0  0  0  0  0  0 
    5.9630    4.0122   -3.7010 C   0  0  0  0  0  0  0  0  0  0  0  0 
    6.3229    4.8270   -2.4519 C   0  0  0  0  0  0  0  0  0  0  0  0 
    6.9969    4.0006   -1.3490 C   0  0  0  0  0  0  0  0  0  0  0  0 
    7.3493    4.8203   -0.1009 C   0  0  0  0  0  0  0  0  0  0  0  0 
    8.0265    4.0008    1.0060 C   0  0  0  0  0  0  0  0  0  0  0  0 
    8.3639    4.8368    2.2488 C   0  0  0  0  0  0  0  0  0  0  0  0 
    6.6166   -1.1391    6.5476 C   0  0  0  0  0  0  0  0  0  0  0  0 
    9.1053    4.0809    3.3657 C   0  0  0  0  0  0  0  0  0  0  0  0 
    6.2123    0.1729    6.8027 C   0  0  0  0  0  0  0  0  0  0  0  0 
    7.8015   -1.3662    5.8476 C   0  0  0  0  0  0  0  0  0  0  0  0 
    8.2691    2.9984    4.0660 C   0  0  0  0  0  0  0  0  0  0  0  0 
    6.9870    1.2450    6.3605 C   0  0  0  0  0  0  0  0  0  0  0  0 
    8.5731   -0.2883    5.4075 C   0  0  0  0  0  0  0  0  0  0  0  0 
    9.0240    2.2034    5.1602 C   0  0  2  0  0  0  0  0  0  0  0  0 
    8.1815    1.0337    5.6549 C   0  0  0  0  0  0  0  0  0  0  0  0 
    5.0450    4.2394   -5.6720 H   0  0  0  0  0  0  0  0  0  0  0  0 
    5.9490    5.6620   -5.1297 H   0  0  0  0  0  0  0  0  0  0  0  0 
    4.3623    5.3039   -4.4333 H   0  0  0  0  0  0  0  0  0  0  0  0 
   10.1961    3.8595    5.9899 H   0  0  0  0  0  0  0  0  0  0  0  0 
    9.9975    2.4904    7.0940 H   0  0  0  0  0  0  0  0  0  0  0  0 
    8.6496    3.6009    6.8088 H   0  0  0  0  0  0  0  0  0  0  0  0 
    6.8734    3.5451   -4.1031 H   0  0  0  0  0  0  0  0  0  0  0  0 
    5.2989    3.1841   -3.4151 H   0  0  0  0  0  0  0  0  0  0  0  0 
    5.4113    5.2939   -2.0496 H   0  0  0  0  0  0  0  0  0  0  0  0 
    6.9854    5.6566   -2.7407 H   0  0  0  0  0  0  0  0  0  0  0  0 
    7.9115    3.5377   -1.7489 H   0  0  0  0  0  0  0  0  0  0  0  0 
    6.3367    3.1679   -1.0645 H   0  0  0  0  0  0  0  0  0  0  0  0 
    6.4347    5.2822    0.3001 H   0  0  0  0  0  0  0  0  0  0  0  0 
    8.0076    5.6530   -0.3896 H   0  0  0  0  0  0  0  0  0  0  0  0 
    8.9511    3.5515    0.6129 H   0  0  0  0  0  0  0  0  0  0  0  0 
    7.3731    3.1612    1.2787 H   0  0  0  0  0  0  0  0  0  0  0  0 
    7.4390    5.2686    2.6598 H   0  0  0  0  0  0  0  0  0  0  0  0 
    8.9821    5.6903    1.9360 H   0  0  0  0  0  0  0  0  0  0  0  0 
    6.0141   -1.9753    6.8926 H   0  0  0  0  0  0  0  0  0  0  0  0 
    9.4447    4.8140    4.1086 H   0  0  0  0  0  0  0  0  0  0  0  0 
   10.0158    3.6251    2.9475 H   0  0  0  0  0  0  0  0  0  0  0  0 
    5.2901    0.3631    7.3462 H   0  0  0  0  0  0  0  0  0  0  0  0 
    8.1284   -2.3827    5.6428 H   0  0  0  0  0  0  0  0  0  0  0  0 
    7.8979    2.2795    3.3252 H   0  0  0  0  0  0  0  0  0  0  0  0 
    7.3768    3.4643    4.5095 H   0  0  0  0  0  0  0  0  0  0  0  0 
    6.6556    2.2597    6.5676 H   0  0  0  0  0  0  0  0  0  0  0  0 
    9.4961   -0.4765    4.8627 H   0  0  0  0  0  0  0  0  0  0  0  0 
    9.9219    1.7780    4.6891 H   0  0  0  0  0  0  0  0  0  0  0  0 
  1 20  1  0  0  0  0 
  1  3  1  0  0  0  0 
  2 23  1  0  0  0  0 
  2 22  1  0  0  0  0 
  3 25  1  0  0  0  0 
  3  4  1  0  0  0  0 
  4 26  1  0  0  0  0 
  4  5  1  0  0  0  0 
  5 29  1  0  0  0  0 
  5  6  1  0  0  0  0 
  6 30  1  0  0  0  0 
  6  7  1  0  0  0  0 
  7 33  1  0  0  0  0 
  7  8  1  0  0  0  0 
  8 34  1  0  0  0  0 
  8 10  1  0  0  0  0 
  9 11  1  0  0  0  0 
  9 36  1  0  0  0  0 
 10 13  1  0  0  0  0 
 10 37  1  0  0  0  0 
 11 39  1  0  0  0  0 
 12  9  2  0  0  0  0 
 13 42  1  0  0  0  0 
 13 16  1  0  0  0  0 
 14 43  1  0  0  0  0 
 14 11  2  0  0  0  0 
 15 17  2  0  0  0  0 
 15 12  1  0  0  0  0 
 16 45  1  6  0  0  0 
 16 17  1  0  0  0  0 
 16  2  1  0  0  0  0 
 17 14  1  0  0  0  0 
 18  1  1  0  0  0  0 
 19  1  1  0  0  0  0 
 21  2  1  0  0  0  0 
 24  3  1  0  0  0  0 
 27  4  1  0  0  0  0 
 28  5  1  0  0  0  0 
 31  6  1  0  0  0  0 
 32  7  1  0  0  0  0 
 35  8  1  0  0  0  0 
 38 10  1  0  0  0  0 
 40 12  1  0  0  0  0 
 41 13  1  0  0  0  0 
 44 15  1  0  0  0  0 
M  END 
>  <HBA> 
0 
 
>  <HBD> 
0 
 
>  <TPSA> 
0.0 
 
>  <cid> 
20656 
 
>  <dipole> 
0.32 
 
>  <excitation_energy_1> 
5.307 
 
>  <excitation_energy_2> 
5.92 
 
>  <excitation_energy_3> 
5.976 
 
>  <excitation_energy_4> 
6.187 
 
>  <homo_energy> 
-6.384 
 
>  <homo_lumo_gap> 
6.523 
 
>  <logP> 
5.931 
 
>  <lumo_energy> 
0.139 
 
>  <melting_point> 
0.51 
 
>  <molecular_refractivity> 
79.48 
 
>  <oscillator_strength_1> 
0.0014 
 
>  <oscillator_strength_2> 
0.0313 
 
>  <oscillator_strength_3> 
0.0007 
 
>  <oscillator_strength_4> 
0.0004 
 
>  <open_babel_can_smiles> 
CCCCCCCCC[C@H](c1ccccc1)C 
 
>  <mulliken_charges> 
45 
1   -0.441262 
2   -0.449143 
3   -0.246535 
4   -0.245253 
5   -0.252972 
6   -0.252375 
7   -0.255097 
8   -0.254625 
9   -0.131791 
10   -0.260861 
11   -0.130096 
12   -0.126254 
13   -0.254566 
14   -0.182812 
15   -0.196171 
16   -0.16309 
17   0.180113 
18   0.140961 
19   0.140703 
20   0.140837 
21   0.146461 
22   0.150139 
23   0.141701 
24   0.129415 
25   0.129857 
26   0.125889 
27   0.125736 
28   0.12608 
29   0.127082 
30   0.126812 
31   0.126034 
32   0.125391 
33   0.134395 
34   0.126398 
35   0.126949 
36   0.12577 
37   0.132124 
38   0.125413 
39   0.12605 
40   0.126104 
41   0.141765 
42   0.126877 
43   0.123268 
44   0.121265 
45   0.123316 
 
>  <lowdin_charges> 
45 
1   -0.445933 
2   -0.447799 
3   -0.273579 
4   -0.275718 
5   -0.275707 
6   -0.274817 
7   -0.278107 
8   -0.275483 
9   -0.16446 
10   -0.279701 
11   -0.154681 
12   -0.155701 
13   -0.277945 
14   -0.166478 
15   -0.170181 
16   -0.121366 
17   0.001141 
18   0.149272 
19   0.146749 
20   0.146138 
21   0.150612 
22   0.155027 
23   0.147641 
24   0.138896 
25   0.139326 
26   0.137443 
27   0.137611 
28   0.137579 
29   0.138236 
30   0.137887 
31   0.13759 
32   0.137095 
33   0.140407 
34   0.137852 
35   0.140909 
36   0.156929 
37   0.143318 
38   0.137258 
39   0.155518 
40   0.155157 
41   0.147386 
42   0.138794 
43   0.152642 
44   0.152759 
45   0.140483 
 
$$$$ 
 
