PCCDB-ID:  32469 
public computational chemistry database (PCCDB) project, http://pccdb.org 
 
 28 27  0  0  0  0  0  0  0  0999 V2000 
    0.6659   -0.9198   -0.7845 C   0  0  0  0  0  0  0  0  0  0  0  0 
    0.6538    0.0709   -1.9520 C   0  0  0  0  0  0  0  0  0  0  0  0 
    2.0236   -0.9611   -0.0710 C   0  0  0  0  0  0  0  0  0  0  0  0 
   -0.8502    1.1430   -3.5857 C   0  0  0  0  0  0  0  0  0  0  0  0 
   -0.0153    1.0100   -4.8754 C   0  0  0  0  0  0  0  0  0  0  0  0 
    2.5309   -3.8139    2.3832 C   0  0  0  0  0  0  0  0  0  0  0  0 
    2.7570   -3.0261    1.0727 C   0  0  0  0  0  0  0  0  0  0  0  0 
    3.2618   -4.9460    2.4145 N   0  0  0  0  0  0  0  0  0  0  0  0 
   -0.6729    0.1235   -2.5631 N   0  0  0  0  0  0  0  0  0  0  0  0 
    2.0403   -1.8855    1.0501 N   0  0  0  0  0  0  0  0  0  0  0  0 
    1.7691   -3.4149    3.2578 O   0  0  0  0  0  0  0  0  0  0  0  0 
    3.5137   -3.4379    0.1952 O   0  0  0  0  0  0  0  0  0  0  0  0 
   -0.2960   -0.5630   -5.7969 S   0  0  0  0  0  0  0  0  0  0  0  0 
    0.4278   -1.9280   -1.1489 H   0  0  0  0  0  0  0  0  0  0  0  0 
   -0.1263   -0.6400   -0.0790 H   0  0  0  0  0  0  0  0  0  0  0  0 
    1.4625   -0.1956   -2.6584 H   0  0  0  0  0  0  0  0  0  0  0  0 
    0.8860    1.0789   -1.5795 H   0  0  0  0  0  0  0  0  0  0  0  0 
    2.2914    0.0414    0.2891 H   0  0  0  0  0  0  0  0  0  0  0  0 
    2.8120   -1.2912   -0.7533 H   0  0  0  0  0  0  0  0  0  0  0  0 
   -1.9140    1.1680   -3.8562 H   0  0  0  0  0  0  0  0  0  0  0  0 
   -0.6198    2.1198   -3.1364 H   0  0  0  0  0  0  0  0  0  0  0  0 
    1.0563    1.0053   -4.6528 H   0  0  0  0  0  0  0  0  0  0  0  0 
   -0.2025    1.8574   -5.5428 H   0  0  0  0  0  0  0  0  0  0  0  0 
    3.8505   -5.1579    1.6196 H   0  0  0  0  0  0  0  0  0  0  0  0 
    3.2094   -5.5651    3.2093 H   0  0  0  0  0  0  0  0  0  0  0  0 
   -0.8986   -0.7871   -2.9629 H   0  0  0  0  0  0  0  0  0  0  0  0 
    1.4583   -1.7286    1.8666 H   0  0  0  0  0  0  0  0  0  0  0  0 
   -1.5851   -0.3246   -6.1267 H   0  0  0  0  0  0  0  0  0  0  0  0 
  1 15  1  0  0  0  0 
  1  3  1  0  0  0  0 
  2 17  1  0  0  0  0 
  2  1  1  0  0  0  0 
  3 18  1  0  0  0  0 
  3 10  1  0  0  0  0 
  4 21  1  0  0  0  0 
  4  9  1  0  0  0  0 
  5 22  1  0  0  0  0 
  5  4  1  0  0  0  0 
  6  8  1  0  0  0  0 
  6 11  2  0  0  0  0 
  7  6  1  0  0  0  0 
  8 25  1  0  0  0  0 
  9  2  1  0  0  0  0 
 10  7  1  0  0  0  0 
 10 27  1  0  0  0  0 
 12  7  2  0  0  0  0 
 13  5  1  0  0  0  0 
 14  1  1  0  0  0  0 
 16  2  1  0  0  0  0 
 19  3  1  0  0  0  0 
 20  4  1  0  0  0  0 
 23  5  1  0  0  0  0 
 24  8  1  0  0  0  0 
 26  9  1  0  0  0  0 
 28 13  1  0  0  0  0 
M  END 
>  <HBA> 
6 
 
>  <HBD> 
4 
 
>  <TPSA> 
123.02 
 
>  <cid> 
32469 
 
>  <dipole> 
1.38 
 
>  <excitation_energy_1> 
4.196 
 
>  <excitation_energy_2> 
4.614 
 
>  <excitation_energy_3> 
5.166 
 
>  <excitation_energy_4> 
5.183 
 
>  <homo_energy> 
-6.117 
 
>  <homo_lumo_gap> 
5.298 
 
>  <logP> 
-0.021 
 
>  <lumo_energy> 
-0.819 
 
>  <melting_point> 
144.42 
 
>  <molecular_refractivity> 
52.4 
 
>  <oscillator_strength_1> 
0.0 
 
>  <oscillator_strength_2> 
0.0049 
 
>  <oscillator_strength_3> 
0.0006 
 
>  <oscillator_strength_4> 
0.0044 
 
>  <open_babel_can_smiles> 
SCCNCCCNC(=O)C(=O)N 
 
>  <mulliken_charges> 
28 
1   -0.26572 
2   -0.1241 
3   -0.137538 
4   -0.126392 
5   -0.420872 
6   0.545227 
7   0.549088 
8   -0.742011 
9   -0.543592 
10   -0.590528 
11   -0.525862 
12   -0.54356 
13   -0.095744 
14   0.150078 
15   0.149672 
16   0.122145 
17   0.134852 
18   0.149904 
19   0.185414 
20   0.144258 
21   0.146453 
22   0.18336 
23   0.175859 
24   0.368894 
25   0.347162 
26   0.312004 
27   0.355537 
28   0.096012 
 
>  <lowdin_charges> 
28 
1   -0.284767 
2   -0.202255 
3   -0.197352 
4   -0.208761 
5   -0.391482 
6   0.134714 
7   0.122895 
8   -0.433387 
9   -0.357115 
10   -0.241105 
11   -0.309361 
12   -0.320335 
13   -0.09086 
14   0.149683 
15   0.150996 
16   0.121579 
17   0.138666 
18   0.147139 
19   0.171486 
20   0.144861 
21   0.147626 
22   0.166707 
23   0.16369 
24   0.308176 
25   0.297446 
26   0.260118 
27   0.299577 
28   0.111421 
 
$$$$ 
 
