PCCDB-ID:  34767 
public computational chemistry database (PCCDB) project, http://pccdb.org 
 
 25 25  0  0  0  0  0  0  0  0999 V2000 
    3.2068   -0.6265   -3.1157 C   0  0  0  0  0  0  0  0  0  0  0  0 
    2.7211   -0.5880   -1.6750 C   0  0  0  0  0  0  0  0  0  0  0  0 
    7.2300   -1.8910    0.2702 C   0  0  0  0  0  0  0  0  0  0  0  0 
    7.8992    0.5907    0.2785 C   0  0  0  0  0  0  0  0  0  0  0  0 
    5.8731   -1.4709    0.8784 C   0  0  0  0  0  0  0  0  0  0  0  0 
    6.5129    0.9054    0.8835 C   0  0  0  0  0  0  0  0  0  0  0  0 
    8.3117   -0.8517    0.5449 C   0  0  0  0  0  0  0  0  0  0  0  0 
    4.5465    0.2341   -0.3951 C   0  0  0  0  0  0  0  0  0  0  0  0 
    5.5345   -0.1041    0.4950 N   0  0  0  0  0  0  0  0  0  0  0  0 
    9.4170   -1.1533    0.9516 O   0  0  0  0  0  0  0  0  0  0  0  0 
    4.3486    1.3649   -0.8108 O   0  0  0  0  0  0  0  0  0  0  0  0 
    3.7973   -0.8460   -0.7448 O   0  0  0  0  0  0  0  0  0  0  0  0 
    2.3581   -0.5009   -3.7980 H   0  0  0  0  0  0  0  0  0  0  0  0 
    3.6891   -1.5837   -3.3410 H   0  0  0  0  0  0  0  0  0  0  0  0 
    3.9178    0.1836   -3.3005 H   0  0  0  0  0  0  0  0  0  0  0  0 
    1.9986   -1.3836   -1.4746 H   0  0  0  0  0  0  0  0  0  0  0  0 
    2.2725    0.3785   -1.4355 H   0  0  0  0  0  0  0  0  0  0  0  0 
    7.1094   -1.9830   -0.8187 H   0  0  0  0  0  0  0  0  0  0  0  0 
    7.5612   -2.8577    0.6609 H   0  0  0  0  0  0  0  0  0  0  0  0 
    8.6697    1.2585    0.6745 H   0  0  0  0  0  0  0  0  0  0  0  0 
    7.8435    0.7380   -0.8095 H   0  0  0  0  0  0  0  0  0  0  0  0 
    5.9331   -1.5187    1.9746 H   0  0  0  0  0  0  0  0  0  0  0  0 
    5.0785   -2.1415    0.5578 H   0  0  0  0  0  0  0  0  0  0  0  0 
    6.1490    1.8759    0.5477 H   0  0  0  0  0  0  0  0  0  0  0  0 
    6.5831    0.9228    1.9797 H   0  0  0  0  0  0  0  0  0  0  0  0 
  1  2  1  0  0  0  0 
  2 16  1  0  0  0  0 
  2 17  1  0  0  0  0 
  2 12  1  0  0  0  0 
  3  7  1  0  0  0  0 
  3 19  1  0  0  0  0 
  3  5  1  0  0  0  0 
  4  7  1  0  0  0  0 
  4 20  1  0  0  0  0 
  4  6  1  0  0  0  0 
  5 22  1  0  0  0  0 
  6 25  1  0  0  0  0 
  7 10  2  0  0  0  0 
  8  9  1  0  0  0  0 
  9  5  1  0  0  0  0 
  9  6  1  0  0  0  0 
 11  8  2  0  0  0  0 
 12  8  1  0  0  0  0 
 13  1  1  0  0  0  0 
 14  1  1  0  0  0  0 
 15  1  1  0  0  0  0 
 18  3  1  0  0  0  0 
 21  4  1  0  0  0  0 
 23  5  1  0  0  0  0 
 24  6  1  0  0  0  0 
M  END 
>  <HBA> 
4 
 
>  <HBD> 
0 
 
>  <TPSA> 
46.61 
 
>  <cid> 
34767 
 
>  <dipole> 
2.51 
 
>  <excitation_energy_1> 
4.219 
 
>  <excitation_energy_2> 
5.162 
 
>  <excitation_energy_3> 
6.134 
 
>  <excitation_energy_4> 
6.24 
 
>  <homo_energy> 
-6.67 
 
>  <homo_lumo_gap> 
6.057 
 
>  <logP> 
0.746 
 
>  <lumo_energy> 
-0.612 
 
>  <melting_point> 
41.49 
 
>  <molecular_refractivity> 
47.14 
 
>  <oscillator_strength_1> 
0.0001 
 
>  <oscillator_strength_2> 
0.0301 
 
>  <oscillator_strength_3> 
0.0027 
 
>  <oscillator_strength_4> 
0.0151 
 
>  <open_babel_can_smiles> 
CCOC(=O)N1CCC(=O)CC1 
 
>  <mulliken_charges> 
25 
1   -0.461887 
2   -0.035786 
3   -0.34435 
4   -0.345111 
5   -0.163983 
6   -0.165715 
7   0.444703 
8   0.798067 
9   -0.449924 
10   -0.439787 
11   -0.52922 
12   -0.495881 
13   0.150417 
14   0.152327 
15   0.176792 
16   0.150059 
17   0.174084 
18   0.168002 
19   0.168841 
20   0.169647 
21   0.171968 
22   0.157397 
23   0.193249 
24   0.200516 
25   0.155573 
 
>  <lowdin_charges> 
25 
1   -0.457653 
2   -0.124347 
3   -0.312995 
4   -0.313875 
5   -0.195233 
6   -0.192632 
7   0.153545 
8   0.205728 
9   -0.113928 
10   -0.228353 
11   -0.32218 
12   -0.212783 
13   0.159494 
14   0.153417 
15   0.166382 
16   0.151603 
17   0.160951 
18   0.165454 
19   0.168234 
20   0.170092 
21   0.167701 
22   0.146125 
23   0.177572 
24   0.182231 
25   0.145451 
 
$$$$ 
 
