PCCDB-ID:  61017 
public computational chemistry database (PCCDB) project, http://pccdb.org 
 
 28 27  0  0  0  0  0  0  0  0999 V2000 
    3.6952   -1.1948   -1.9955 C   0  0  0  0  0  0  0  0  0  0  0  0 
    1.7421   -1.0221   -0.4414 C   0  0  0  0  0  0  0  0  0  0  0  0 
    3.6192   -2.5566    0.1219 C   0  0  0  0  0  0  0  0  0  0  0  0 
    5.5329    1.5383    1.3438 C   0  0  0  0  0  0  0  0  0  0  0  0 
    6.2771   -0.8025    0.8702 C   0  0  0  0  0  0  0  0  0  0  0  0 
    3.8773    0.0076    0.2848 C   0  0  0  0  0  0  0  0  0  0  0  0 
    3.2779   -1.1917   -0.5126 C   0  0  0  0  0  0  0  0  0  0  0  0 
    5.3937    0.3487    0.3609 C   0  0  0  0  0  0  0  0  0  0  0  0 
    5.8860    0.7082   -0.9868 N   0  0  0  0  0  0  0  0  0  0  0  0 
    3.1871   -2.0101   -2.5273 H   0  0  0  0  0  0  0  0  0  0  0  0 
    4.7742   -1.3106   -2.1144 H   0  0  0  0  0  0  0  0  0  0  0  0 
    3.4153   -0.2542   -2.4861 H   0  0  0  0  0  0  0  0  0  0  0  0 
    1.2364   -1.8444   -0.9618 H   0  0  0  0  0  0  0  0  0  0  0  0 
    1.4226   -0.0836   -0.9112 H   0  0  0  0  0  0  0  0  0  0  0  0 
    1.3863   -1.0152    0.5968 H   0  0  0  0  0  0  0  0  0  0  0  0 
    3.0319   -3.3502   -0.3567 H   0  0  0  0  0  0  0  0  0  0  0  0 
    3.3806   -2.5703    1.1931 H   0  0  0  0  0  0  0  0  0  0  0  0 
    4.6731   -2.8211    0.0085 H   0  0  0  0  0  0  0  0  0  0  0  0 
    5.2138    1.2742    2.3599 H   0  0  0  0  0  0  0  0  0  0  0  0 
    4.9275    2.3926    1.0152 H   0  0  0  0  0  0  0  0  0  0  0  0 
    6.5783    1.8680    1.3978 H   0  0  0  0  0  0  0  0  0  0  0  0 
    5.8933   -1.2194    1.8074 H   0  0  0  0  0  0  0  0  0  0  0  0 
    7.2948   -0.4377    1.0626 H   0  0  0  0  0  0  0  0  0  0  0  0 
    6.3492   -1.6023    0.1304 H   0  0  0  0  0  0  0  0  0  0  0  0 
    3.5242   -0.0911    1.3213 H   0  0  0  0  0  0  0  0  0  0  0  0 
    3.3881    0.9167   -0.0998 H   0  0  0  0  0  0  0  0  0  0  0  0 
    6.8521    1.0300   -0.9113 H   0  0  0  0  0  0  0  0  0  0  0  0 
    5.3552    1.5060   -1.3387 H   0  0  0  0  0  0  0  0  0  0  0  0 
  1  7  1  0  0  0  0 
  2 15  1  0  0  0  0 
  3 17  1  0  0  0  0 
  4 21  1  0  0  0  0 
  4 19  1  0  0  0  0 
  5 23  1  0  0  0  0 
  5 22  1  0  0  0  0 
  6  8  1  0  0  0  0 
  6 25  1  0  0  0  0 
  7  2  1  0  0  0  0 
  7  3  1  0  0  0  0 
  7  6  1  0  0  0  0 
  8  5  1  0  0  0  0 
  8  4  1  0  0  0  0 
  9 27  1  0  0  0  0 
  9  8  1  0  0  0  0 
 10  1  1  0  0  0  0 
 11  1  1  0  0  0  0 
 12  1  1  0  0  0  0 
 13  2  1  0  0  0  0 
 14  2  1  0  0  0  0 
 16  3  1  0  0  0  0 
 18  3  1  0  0  0  0 
 20  4  1  0  0  0  0 
 24  5  1  0  0  0  0 
 26  6  1  0  0  0  0 
 28  9  1  0  0  0  0 
M  END 
>  <HBA> 
1 
 
>  <HBD> 
1 
 
>  <TPSA> 
26.02 
 
>  <cid> 
61017 
 
>  <dipole> 
1.38 
 
>  <excitation_energy_1> 
5.522 
 
>  <excitation_energy_2> 
6.322 
 
>  <excitation_energy_3> 
6.405 
 
>  <excitation_energy_4> 
6.566 
 
>  <homo_energy> 
-6.185 
 
>  <homo_lumo_gap> 
7.848 
 
>  <logP> 
2.86 
 
>  <lumo_energy> 
1.663 
 
>  <melting_point> 
56.07 
 
>  <molecular_refractivity> 
43.06 
 
>  <oscillator_strength_1> 
0.0345 
 
>  <oscillator_strength_2> 
0.0003 
 
>  <oscillator_strength_3> 
0.0016 
 
>  <oscillator_strength_4> 
0.0028 
 
>  <open_babel_can_smiles> 
CC(CC(N)(C)C)(C)C 
 
>  <mulliken_charges> 
28 
1   -0.431564 
2   -0.440301 
3   -0.444423 
4   -0.444276 
5   -0.442759 
6   -0.248191 
7   0.099911 
8   0.18365 
9   -0.707057 
10   0.122146 
11   0.172228 
12   0.12238 
13   0.136641 
14   0.134295 
15   0.133577 
16   0.134487 
17   0.130398 
18   0.144818 
19   0.13903 
20   0.132639 
21   0.130221 
22   0.141108 
23   0.128622 
24   0.163465 
25   0.121494 
26   0.112279 
27   0.287833 
28   0.287348 
 
>  <lowdin_charges> 
28 
1   -0.444961 
2   -0.442458 
3   -0.443335 
4   -0.456771 
5   -0.446471 
6   -0.277329 
7   0.01852 
8   0.064572 
9   -0.540952 
10   0.140005 
11   0.16052 
12   0.14091 
13   0.146906 
14   0.143818 
15   0.142484 
16   0.146703 
17   0.141044 
18   0.148661 
19   0.146739 
20   0.144038 
21   0.141412 
22   0.150762 
23   0.142443 
24   0.157725 
25   0.140642 
26   0.136951 
27   0.248451 
28   0.248974 
 
$$$$ 
 
