PCCDB-ID:  10869 
public computational chemistry database (PCCDB) project, http://pccdb.org 
 
 19 19  0  0  0  0  0  0  0  0999 V2000 
    2.9277   -0.4416    3.4350 C   0  0  0  0  0  0  0  0  0  0  0  0 
    7.7666   -0.5662    1.1943 C   0  0  0  0  0  0  0  0  0  0  0  0 
    6.8684    0.5017    1.1154 C   0  0  0  0  0  0  0  0  0  0  0  0 
    7.2816   -1.8676    1.3269 C   0  0  0  0  0  0  0  0  0  0  0  0 
    5.4948    0.2673    1.1609 C   0  0  0  0  0  0  0  0  0  0  0  0 
    5.9051   -2.0981    1.3815 C   0  0  0  0  0  0  0  0  0  0  0  0 
    3.5004   -1.2862    1.2974 C   0  0  0  0  0  0  0  0  0  0  0  0 
    4.9989   -1.0366    1.2924 C   0  0  0  0  0  0  0  0  0  0  0  0 
    2.7554   -0.3302    2.0337 O   0  0  0  0  0  0  0  0  0  0  0  0 
    2.2854    0.3149    3.8933 H   0  0  0  0  0  0  0  0  0  0  0  0 
    3.9684   -0.2628    3.7400 H   0  0  0  0  0  0  0  0  0  0  0  0 
    2.6234   -1.4367    3.7977 H   0  0  0  0  0  0  0  0  0  0  0  0 
    8.8372   -0.3831    1.1577 H   0  0  0  0  0  0  0  0  0  0  0  0 
    7.2402    1.5183    1.0159 H   0  0  0  0  0  0  0  0  0  0  0  0 
    7.9732   -2.7033    1.3965 H   0  0  0  0  0  0  0  0  0  0  0  0 
    4.7927    1.0947    1.1051 H   0  0  0  0  0  0  0  0  0  0  0  0 
    5.5319   -3.1142    1.4942 H   0  0  0  0  0  0  0  0  0  0  0  0 
    3.2928   -2.3057    1.6641 H   0  0  0  0  0  0  0  0  0  0  0  0 
    3.1071   -1.2211    0.2755 H   0  0  0  0  0  0  0  0  0  0  0  0 
  1 11  1  0  0  0  0 
  1 12  1  0  0  0  0 
  1 10  1  0  0  0  0 
  2  4  2  0  0  0  0 
  3  5  2  0  0  0  0 
  3  2  1  0  0  0  0 
  4  6  1  0  0  0  0 
  4 15  1  0  0  0  0 
  5  8  1  0  0  0  0 
  6 17  1  0  0  0  0 
  7 18  1  0  0  0  0 
  7  9  1  0  0  0  0 
  8  7  1  0  0  0  0 
  8  6  2  0  0  0  0 
  9  1  1  0  0  0  0 
 13  2  1  0  0  0  0 
 14  3  1  0  0  0  0 
 16  5  1  0  0  0  0 
 19  7  1  0  0  0  0 
M  END 
>  <HBA> 
1 
 
>  <HBD> 
0 
 
>  <TPSA> 
9.23 
 
>  <cid> 
10869 
 
>  <dipole> 
1.15 
 
>  <excitation_energy_1> 
5.291 
 
>  <excitation_energy_2> 
5.8 
 
>  <excitation_energy_3> 
5.941 
 
>  <excitation_energy_4> 
6.04 
 
>  <homo_energy> 
-6.582 
 
>  <homo_lumo_gap> 
6.52 
 
>  <logP> 
1.833 
 
>  <lumo_energy> 
-0.063 
 
>  <melting_point> 
-2.46 
 
>  <molecular_refractivity> 
37.3 
 
>  <oscillator_strength_1> 
0.0001 
 
>  <oscillator_strength_2> 
0.0197 
 
>  <oscillator_strength_3> 
0.0086 
 
>  <oscillator_strength_4> 
0.0043 
 
>  <open_babel_can_smiles> 
COCc1ccccc1 
 
>  <mulliken_charges> 
19 
1   -0.202697 
2   -0.129228 
3   -0.129622 
4   -0.127913 
5   -0.168505 
6   -0.182313 
7   -0.096585 
8   0.12351 
9   -0.453768 
10   0.157443 
11   0.144729 
12   0.128588 
13   0.1288 
14   0.129871 
15   0.128872 
16   0.14217 
17   0.122686 
18   0.124243 
19   0.159719 
 
>  <lowdin_charges> 
19 
1   -0.282446 
2   -0.156402 
3   -0.153504 
4   -0.157035 
5   -0.159856 
6   -0.166748 
7   -0.129879 
8   -0.025954 
9   -0.269346 
10   0.156527 
11   0.13843 
12   0.130949 
13   0.155488 
14   0.156636 
15   0.158037 
16   0.165 
17   0.153085 
18   0.130485 
19   0.156532 
 
$$$$ 
 
