PCCDB-ID:  53172 
public computational chemistry database (PCCDB) project, http://pccdb.org 
 
 28 28  0  0  1  0  0  0  0  0999 V2000 
    0.7283    1.4867   -0.7012 C   0  0  0  0  0  0  0  0  0  0  0  0 
    1.5648    0.3763   -0.0484 C   0  0  0  0  0  0  0  0  0  0  0  0 
   -0.6979    1.5326   -0.1332 C   0  0  0  0  0  0  0  0  0  0  0  0 
   -0.5526   -0.9353    0.4067 C   0  0  0  0  0  0  0  0  0  0  0  0 
    1.7251   -2.0785    0.5189 C   0  0  0  0  0  0  0  0  0  0  0  0 
   -2.8115    0.1748    0.3583 C   0  0  0  0  0  0  0  0  0  0  0  0 
    1.1911   -4.3401   -0.3752 C   0  0  0  0  0  0  0  0  0  0  0  0 
   -4.0921    2.2166   -0.2836 C   0  0  0  0  0  0  0  0  0  0  0  0 
    0.8746   -0.9944   -0.1647 C   0  0  2  0  0  0  0  0  0  0  0  0 
   -1.3990    0.1696   -0.2524 C   0  0  1  0  0  0  0  0  0  0  0  0 
    1.1601   -3.4068    0.3890 N   0  0  0  0  0  0  0  0  0  0  0  0 
   -3.7208    1.0703   -0.3255 N   0  0  0  0  0  0  0  0  0  0  0  0 
    1.1341   -5.3219   -1.0296 O   0  0  0  0  0  0  0  0  0  0  0  0 
   -4.5438    3.3066   -0.3521 O   0  0  0  0  0  0  0  0  0  0  0  0 
    0.6811    1.3137   -1.7859 H   0  0  0  0  0  0  0  0  0  0  0  0 
    1.2198    2.4574   -0.5632 H   0  0  0  0  0  0  0  0  0  0  0  0 
    1.7159    0.6139    1.0158 H   0  0  0  0  0  0  0  0  0  0  0  0 
    2.5626    0.3371   -0.5051 H   0  0  0  0  0  0  0  0  0  0  0  0 
   -1.2786    2.3062   -0.6492 H   0  0  0  0  0  0  0  0  0  0  0  0 
   -0.6576    1.8221    0.9287 H   0  0  0  0  0  0  0  0  0  0  0  0 
   -0.4929   -0.7479    1.4909 H   0  0  0  0  0  0  0  0  0  0  0  0 
   -1.0395   -1.9104    0.2846 H   0  0  0  0  0  0  0  0  0  0  0  0 
    1.8006   -1.8597    1.5902 H   0  0  0  0  0  0  0  0  0  0  0  0 
    2.7440   -2.0648    0.1114 H   0  0  0  0  0  0  0  0  0  0  0  0 
   -2.7578    0.4371    1.4238 H   0  0  0  0  0  0  0  0  0  0  0  0 
   -3.2368   -0.8322    0.2929 H   0  0  0  0  0  0  0  0  0  0  0  0 
    0.8061   -1.2543   -1.2324 H   0  0  0  0  0  0  0  0  0  0  0  0 
   -1.5083   -0.0698   -1.3208 H   0  0  0  0  0  0  0  0  0  0  0  0 
  1 16  1  0  0  0  0 
  1  3  1  0  0  0  0 
  1  2  1  0  0  0  0 
  2 17  1  0  0  0  0 
  3 20  1  0  0  0  0 
  4 21  1  0  0  0  0 
  5 23  1  0  0  0  0 
  6 25  1  0  0  0  0 
  7 11  2  0  0  0  0 
  9 27  1  6  0  0  0 
  9  2  1  0  0  0  0 
  9  4  1  0  0  0  0 
  9  5  1  0  0  0  0 
 10 28  1  6  0  0  0 
 10  3  1  0  0  0  0 
 10  6  1  0  0  0  0 
 10  4  1  0  0  0  0 
 11  5  1  0  0  0  0 
 12  8  2  0  0  0  0 
 12  6  1  0  0  0  0 
 13  7  2  0  0  0  0 
 14  8  2  0  0  0  0 
 15  1  1  0  0  0  0 
 18  2  1  0  0  0  0 
 19  3  1  0  0  0  0 
 22  4  1  0  0  0  0 
 24  5  1  0  0  0  0 
 26  6  1  0  0  0  0 
M  END 
>  <HBA> 
4 
 
>  <HBD> 
0 
 
>  <TPSA> 
58.86 
 
>  <cid> 
53172 
 
>  <dipole> 
3.13 
 
>  <excitation_energy_1> 
6.007 
 
>  <excitation_energy_2> 
6.049 
 
>  <excitation_energy_3> 
6.679 
 
>  <excitation_energy_4> 
6.782 
 
>  <homo_energy> 
-7.434 
 
>  <homo_lumo_gap> 
7.902 
 
>  <logP> 
1.464 
 
>  <lumo_energy> 
0.468 
 
>  <melting_point> 
94.91 
 
>  <molecular_refractivity> 
52.59 
 
>  <oscillator_strength_1> 
0.0012 
 
>  <oscillator_strength_2> 
0.0009 
 
>  <oscillator_strength_3> 
0.0097 
 
>  <oscillator_strength_4> 
0.0063 
 
>  <open_babel_can_smiles> 
O=C=NC[C@@H]1CCC[C@@H](C1)CN=C=O 
 
>  <mulliken_charges> 
28 
1   -0.266949 
2   -0.265632 
3   -0.267883 
4   -0.266879 
5   -0.145641 
6   -0.146251 
7   0.600528 
8   0.600772 
9   -0.093558 
10   -0.089992 
11   -0.422739 
12   -0.421589 
13   -0.412973 
14   -0.41631 
15   0.136916 
16   0.141151 
17   0.131361 
18   0.135944 
19   0.148176 
20   0.127311 
21   0.126966 
22   0.151971 
23   0.162024 
24   0.16056 
25   0.156353 
26   0.166541 
27   0.131403 
28   0.138419 
 
>  <lowdin_charges> 
28 
1   -0.272384 
2   -0.276398 
3   -0.281545 
4   -0.277615 
5   -0.166135 
6   -0.167757 
7   0.173384 
8   0.167242 
9   -0.131017 
10   -0.131698 
11   -0.182006 
12   -0.175109 
13   -0.16394 
14   -0.166221 
15   0.140567 
16   0.149371 
17   0.13836 
18   0.145213 
19   0.153501 
20   0.136491 
21   0.136975 
22   0.153077 
23   0.154287 
24   0.15295 
25   0.148405 
26   0.158948 
27   0.139442 
28   0.143612 
 
$$$$ 
 
