PCCDB-ID:  25283 
public computational chemistry database (PCCDB) project, http://pccdb.org 
 
 26 27  0  0  0  0  0  0  0  0999 V2000 
    1.5767   -1.1799   -0.2288 C   0  0  0  0  0  0  0  0  0  0  0  0 
   -0.9247    1.5691    0.1644 C   0  0  0  0  0  0  0  0  0  0  0  0 
    2.7568   -0.4754   -0.2128 C   0  0  0  0  0  0  0  0  0  0  0  0 
   -2.1131    0.8713    0.1508 C   0  0  0  0  0  0  0  0  0  0  0  0 
    1.5560    1.6160    0.0510 C   0  0  0  0  0  0  0  0  0  0  0  0 
   -0.9042   -1.2161   -0.1183 C   0  0  0  0  0  0  0  0  0  0  0  0 
   -4.5187   -0.6757    0.0652 C   0  0  0  0  0  0  0  0  0  0  0  0 
    0.3260    0.9112    0.0383 C   0  0  0  0  0  0  0  0  0  0  0  0 
    0.3261   -0.5162   -0.1049 C   0  0  0  0  0  0  0  0  0  0  0  0 
    2.7496    0.9378   -0.0723 C   0  0  0  0  0  0  0  0  0  0  0  0 
   -2.0985   -0.5381    0.0060 C   0  0  0  0  0  0  0  0  0  0  0  0 
   -5.6055   -1.7467   -0.0631 C   0  0  0  0  0  0  0  0  0  0  0  0 
    3.9116    1.6598   -0.0553 O   0  0  0  0  0  0  0  0  0  0  0  0 
   -6.7742   -1.4670    0.0271 O   0  0  0  0  0  0  0  0  0  0  0  0 
   -5.1628   -2.9945   -0.2894 O   0  0  0  0  0  0  0  0  0  0  0  0 
   -3.2470   -1.3042   -0.0147 O   0  0  0  0  0  0  0  0  0  0  0  0 
    1.5918   -2.2613   -0.3377 H   0  0  0  0  0  0  0  0  0  0  0  0 
   -0.9403    2.6502    0.2751 H   0  0  0  0  0  0  0  0  0  0  0  0 
    3.7071   -0.9985   -0.3070 H   0  0  0  0  0  0  0  0  0  0  0  0 
   -3.0495    1.4079    0.2530 H   0  0  0  0  0  0  0  0  0  0  0  0 
    1.5662    2.6966    0.1580 H   0  0  0  0  0  0  0  0  0  0  0  0 
   -0.9137   -2.2969   -0.2277 H   0  0  0  0  0  0  0  0  0  0  0  0 
   -4.6557   -0.1597    1.0234 H   0  0  0  0  0  0  0  0  0  0  0  0 
   -4.6596    0.0520   -0.7442 H   0  0  0  0  0  0  0  0  0  0  0  0 
    4.6630    1.0551   -0.1523 H   0  0  0  0  0  0  0  0  0  0  0  0 
   -4.1857   -2.9610   -0.3189 H   0  0  0  0  0  0  0  0  0  0  0  0 
  1  3  2  0  0  0  0 
  1  9  1  0  0  0  0 
  2 18  1  0  0  0  0 
  3 10  1  0  0  0  0 
  4  2  1  0  0  0  0 
  4 20  1  0  0  0  0 
  5 21  1  0  0  0  0 
  6  9  2  0  0  0  0 
  6 11  1  0  0  0  0 
  7 23  1  0  0  0  0 
  8  5  1  0  0  0  0 
  8  2  2  0  0  0  0 
  9  8  1  0  0  0  0 
 10 13  1  0  0  0  0 
 10  5  2  0  0  0  0 
 11  4  2  0  0  0  0 
 12 14  2  0  0  0  0 
 12  7  1  0  0  0  0 
 15 12  1  0  0  0  0 
 16 11  1  0  0  0  0 
 16  7  1  0  0  0  0 
 17  1  1  0  0  0  0 
 19  3  1  0  0  0  0 
 22  6  1  0  0  0  0 
 24  7  1  0  0  0  0 
 25 13  1  0  0  0  0 
 26 15  1  0  0  0  0 
M  END 
>  <HBA> 
4 
 
>  <HBD> 
2 
 
>  <TPSA> 
66.76 
 
>  <cid> 
25283 
 
>  <dipole> 
5.34 
 
>  <excitation_energy_1> 
3.785 
 
>  <excitation_energy_2> 
4.508 
 
>  <excitation_energy_3> 
4.851 
 
>  <excitation_energy_4> 
5.057 
 
>  <homo_energy> 
-5.616 
 
>  <homo_lumo_gap> 
4.291 
 
>  <logP> 
2.009 
 
>  <lumo_energy> 
-1.325 
 
>  <melting_point> 
171.23 
 
>  <molecular_refractivity> 
59.04 
 
>  <oscillator_strength_1> 
0.0621 
 
>  <oscillator_strength_2> 
0.005 
 
>  <oscillator_strength_3> 
0.0001 
 
>  <oscillator_strength_4> 
0.0148 
 
>  <open_babel_can_smiles> 
OC(=O)COc1ccc2c(c1)ccc(c2)O 
 
>  <mulliken_charges> 
26 
1   -0.197614 
2   -0.208568 
3   -0.192877 
4   -0.189418 
5   -0.242043 
6   -0.260833 
7   -0.130877 
8   0.146135 
9   0.140079 
10   0.354315 
11   0.388101 
12   0.576723 
13   -0.643912 
14   -0.444608 
15   -0.56468 
16   -0.571151 
17   0.137313 
18   0.140537 
19   0.12548 
20   0.143991 
21   0.141016 
22   0.133399 
23   0.188601 
24   0.187614 
25   0.408932 
26   0.434344 
 
>  <lowdin_charges> 
26 
1   -0.145517 
2   -0.144806 
3   -0.197894 
4   -0.197984 
5   -0.190718 
6   -0.183969 
7   -0.167199 
8   0.001818 
9   -0.003178 
10   0.098392 
11   0.093521 
12   0.180575 
13   -0.377859 
14   -0.240164 
15   -0.33845 
16   -0.224027 
17   0.159684 
18   0.161159 
19   0.15677 
20   0.167369 
21   0.166686 
22   0.162374 
23   0.170559 
24   0.170736 
25   0.359205 
26   0.362918 
 
$$$$ 
 
