PCCDB-ID:  70205 
public computational chemistry database (PCCDB) project, http://pccdb.org 
 
 10  9  0  0  0  0  0  0  0  0999 V2000 
    0.9930    0.5542   -0.5519 C   0  0  0  0  0  0  0  0  0  0  0  0 
    2.7370   -2.6634   -1.2175 C   0  0  0  0  0  0  0  0  0  0  0  0 
    2.5320   -1.1920   -0.8394 C   0  0  0  0  0  0  0  0  0  0  0  0 
    1.8507   -3.4157   -1.5345 O   0  0  0  0  0  0  0  0  0  0  0  0 
    3.4688   -0.4877   -0.5287 O   0  0  0  0  0  0  0  0  0  0  0  0 
    1.2520   -0.8204   -0.8977 O   0  0  0  0  0  0  0  0  0  0  0  0 
   -0.0846    0.6800   -0.6507 H   0  0  0  0  0  0  0  0  0  0  0  0 
    1.5263    1.2229   -1.2324 H   0  0  0  0  0  0  0  0  0  0  0  0 
    1.3153    0.7540    0.4732 H   0  0  0  0  0  0  0  0  0  0  0  0 
    3.8040   -2.9569   -1.1649 H   0  0  0  0  0  0  0  0  0  0  0  0 
  1  9  1  0  0  0  0 
  2 10  1  0  0  0  0 
  2  3  1  0  0  0  0 
  3  5  2  0  0  0  0 
  4  2  2  0  0  0  0 
  6  3  1  0  0  0  0 
  6  1  1  0  0  0  0 
  7  1  1  0  0  0  0 
  8  1  1  0  0  0  0 
M  END 
>  <HBA> 
3 
 
>  <HBD> 
0 
 
>  <TPSA> 
43.37 
 
>  <cid> 
70205 
 
>  <dipole> 
1.8 
 
>  <excitation_energy_1> 
3.234 
 
>  <excitation_energy_2> 
4.776 
 
>  <excitation_energy_3> 
5.697 
 
>  <excitation_energy_4> 
6.549 
 
>  <homo_energy> 
-7.35 
 
>  <homo_lumo_gap> 
4.92 
 
>  <logP> 
-0.642 
 
>  <lumo_energy> 
-2.43 
 
>  <melting_point> 
19.59 
 
>  <molecular_refractivity> 
18.02 
 
>  <oscillator_strength_1> 
0.0 
 
>  <oscillator_strength_2> 
0.0002 
 
>  <oscillator_strength_3> 
0.0371 
 
>  <oscillator_strength_4> 
0.0001 
 
>  <open_babel_can_smiles> 
COC(=O)C=O 
 
>  <mulliken_charges> 
10 
1   -0.227826 
2   0.19774 
3   0.564783 
4   -0.338777 
5   -0.456065 
6   -0.421104 
7   0.178589 
8   0.178548 
9   0.17857 
10   0.145543 
 
>  <lowdin_charges> 
10 
1   -0.272714 
2   0.038053 
3   0.152303 
4   -0.16003 
5   -0.23776 
6   -0.156675 
7   0.166531 
8   0.165729 
9   0.163261 
10   0.141302 
 
$$$$ 
 
