PCCDB-ID:  70831 
public computational chemistry database (PCCDB) project, http://pccdb.org 
 
 30 31  0  0  0  0  0  0  0  0999 V2000 
   -0.0850    0.6075    0.0173 C   0  0  0  0  0  0  0  0  0  0  0  0 
    3.3338   -2.7625   -1.4841 C   0  0  0  0  0  0  0  0  0  0  0  0 
    8.6969    0.5482    1.6767 C   0  0  0  0  0  0  0  0  0  0  0  0 
    8.9312    0.2824    0.3239 C   0  0  0  0  0  0  0  0  0  0  0  0 
    7.4130    0.3998    2.2034 C   0  0  0  0  0  0  0  0  0  0  0  0 
    7.8850   -0.1300   -0.4956 C   0  0  0  0  0  0  0  0  0  0  0  0 
    6.3598    0.0027    1.3786 C   0  0  0  0  0  0  0  0  0  0  0  0 
    2.3874    1.1710    0.0603 C   0  0  0  0  0  0  0  0  0  0  0  0 
    3.7196    0.8132   -0.1335 C   0  0  0  0  0  0  0  0  0  0  0  0 
    1.7250   -1.0078   -0.6974 C   0  0  0  0  0  0  0  0  0  0  0  0 
    1.3660    0.2573   -0.2111 C   0  0  0  0  0  0  0  0  0  0  0  0 
    3.0494   -1.3852   -0.9303 C   0  0  0  0  0  0  0  0  0  0  0  0 
    6.5848   -0.2606    0.0186 C   0  0  0  0  0  0  0  0  0  0  0  0 
    4.0727   -0.4524   -0.6246 C   0  0  0  0  0  0  0  0  0  0  0  0 
    5.5122   -0.7618   -0.9087 C   0  0  0  0  0  0  0  0  0  0  0  0 
    5.8302   -1.4166   -1.8966 O   0  0  0  0  0  0  0  0  0  0  0  0 
   -0.2056    1.6624    0.2828 H   0  0  0  0  0  0  0  0  0  0  0  0 
   -0.5154    0.0080    0.8298 H   0  0  0  0  0  0  0  0  0  0  0  0 
   -0.6885    0.4137   -0.8774 H   0  0  0  0  0  0  0  0  0  0  0  0 
    2.4338   -3.3840   -1.4381 H   0  0  0  0  0  0  0  0  0  0  0  0 
    4.1328   -3.2701   -0.9344 H   0  0  0  0  0  0  0  0  0  0  0  0 
    3.6683   -2.7066   -2.5241 H   0  0  0  0  0  0  0  0  0  0  0  0 
    9.5148    0.8648    2.3187 H   0  0  0  0  0  0  0  0  0  0  0  0 
    9.9309    0.3926   -0.0875 H   0  0  0  0  0  0  0  0  0  0  0  0 
    7.2305    0.5902    3.2575 H   0  0  0  0  0  0  0  0  0  0  0  0 
    8.0510   -0.3618   -1.5427 H   0  0  0  0  0  0  0  0  0  0  0  0 
    5.3657   -0.1220    1.7958 H   0  0  0  0  0  0  0  0  0  0  0  0 
    2.1430    2.1647    0.4276 H   0  0  0  0  0  0  0  0  0  0  0  0 
    4.5006    1.5369    0.0787 H   0  0  0  0  0  0  0  0  0  0  0  0 
    0.9374   -1.7282   -0.9117 H   0  0  0  0  0  0  0  0  0  0  0  0 
  1 17  1  0  0  0  0 
  1 18  1  0  0  0  0 
  2 20  1  0  0  0  0 
  2 21  1  0  0  0  0 
  2 12  1  0  0  0  0 
  3  5  1  0  0  0  0 
  3 23  1  0  0  0  0 
  4  3  2  0  0  0  0 
  5 25  1  0  0  0  0 
  6 13  2  0  0  0  0 
  6  4  1  0  0  0  0 
  7 27  1  0  0  0  0 
  7  5  2  0  0  0  0 
  8 28  1  0  0  0  0 
  9  8  1  0  0  0  0 
  9 29  1  0  0  0  0 
 10 11  1  0  0  0  0 
 11  1  1  0  0  0  0 
 11  8  2  0  0  0  0 
 12 10  2  0  0  0  0 
 12 14  1  0  0  0  0 
 13  7  1  0  0  0  0 
 14  9  2  0  0  0  0 
 15 14  1  0  0  0  0 
 15 13  1  0  0  0  0 
 16 15  2  0  0  0  0 
 19  1  1  0  0  0  0 
 22  2  1  0  0  0  0 
 24  4  1  0  0  0  0 
 26  6  1  0  0  0  0 
 30 10  1  0  0  0  0 
M  END 
>  <HBA> 
1 
 
>  <HBD> 
0 
 
>  <TPSA> 
17.07 
 
>  <cid> 
70831 
 
>  <dipole> 
2.85 
 
>  <excitation_energy_1> 
3.573 
 
>  <excitation_energy_2> 
4.232 
 
>  <excitation_energy_3> 
4.451 
 
>  <excitation_energy_4> 
4.61 
 
>  <homo_energy> 
-6.446 
 
>  <homo_lumo_gap> 
4.876 
 
>  <logP> 
3.534 
 
>  <lumo_energy> 
-1.57 
 
>  <melting_point> 
73.43 
 
>  <molecular_refractivity> 
66.25 
 
>  <oscillator_strength_1> 
0.0016 
 
>  <oscillator_strength_2> 
0.0816 
 
>  <oscillator_strength_3> 
0.1531 
 
>  <oscillator_strength_4> 
0.0067 
 
>  <open_babel_can_smiles> 
Cc1ccc(c(c1)C)C(=O)c1ccccc1 
 
>  <mulliken_charges> 
30 
1   -0.532557 
2   -0.512381 
3   -0.119648 
4   -0.134834 
5   -0.136094 
6   -0.153349 
7   -0.176681 
8   -0.194448 
9   -0.175509 
10   -0.247298 
11   0.198204 
12   0.151649 
13   0.070085 
14   0.026037 
15   0.317268 
16   -0.470782 
17   0.157342 
18   0.166986 
19   0.165658 
20   0.141274 
21   0.163233 
22   0.188273 
23   0.135723 
24   0.13669 
25   0.134935 
26   0.159409 
27   0.149237 
28   0.125234 
29   0.146255 
30   0.12009 
 
>  <lowdin_charges> 
30 
1   -0.442443 
2   -0.442065 
3   -0.143641 
4   -0.15519 
5   -0.157175 
6   -0.12877 
7   -0.149611 
8   -0.176377 
9   -0.14945 
10   -0.1786 
11   0.015478 
12   0.027636 
13   -0.044628 
14   -0.056252 
15   0.154542 
16   -0.246242 
17   0.156759 
18   0.164598 
19   0.163501 
20   0.150111 
21   0.165095 
22   0.175153 
23   0.161578 
24   0.160353 
25   0.15857 
26   0.173097 
27   0.16698 
28   0.155594 
29   0.16653 
30   0.154867 
 
$$$$ 
 
