PCCDB-ID:  27948 
public computational chemistry database (PCCDB) project, http://pccdb.org 
 
 24 24  0  0  0  0  0  0  0  0999 V2000 
    1.2102    0.5405   -0.4631 C   0  0  0  0  0  0  0  0  0  0  0  0 
    4.3874   -3.0389    0.5706 C   0  0  0  0  0  0  0  0  0  0  0  0 
    3.8591    1.2237    1.8583 C   0  0  0  0  0  0  0  0  0  0  0  0 
    4.5582    0.0082    2.4689 C   0  0  0  0  0  0  0  0  0  0  0  0 
    3.4992    1.0047    0.3854 C   0  0  0  0  0  0  0  0  0  0  0  0 
    3.7815   -1.2899    2.2270 C   0  0  0  0  0  0  0  0  0  0  0  0 
    2.7507   -1.3114   -0.0131 C   0  0  0  0  0  0  0  0  0  0  0  0 
    2.4249    0.0163    0.1561 N   0  0  0  0  0  0  0  0  0  0  0  0 
    3.7602   -1.7434    0.8204 N   0  0  0  0  0  0  0  0  0  0  0  0 
    1.9882   -2.3121   -1.1326 S   0  0  0  0  0  0  0  0  0  0  0  0 
    0.9393    1.4721    0.0436 H   0  0  0  0  0  0  0  0  0  0  0  0 
    0.3998   -0.1800   -0.3533 H   0  0  0  0  0  0  0  0  0  0  0  0 
    1.3446    0.7359   -1.5357 H   0  0  0  0  0  0  0  0  0  0  0  0 
    5.3516   -3.0601    1.0883 H   0  0  0  0  0  0  0  0  0  0  0  0 
    4.5494   -3.1701   -0.4991 H   0  0  0  0  0  0  0  0  0  0  0  0 
    3.7665   -3.8732    0.9237 H   0  0  0  0  0  0  0  0  0  0  0  0 
    4.5079    2.1058    1.9346 H   0  0  0  0  0  0  0  0  0  0  0  0 
    2.9419    1.4516    2.4175 H   0  0  0  0  0  0  0  0  0  0  0  0 
    4.6786    0.1488    3.5509 H   0  0  0  0  0  0  0  0  0  0  0  0 
    5.5660   -0.0983    2.0458 H   0  0  0  0  0  0  0  0  0  0  0  0 
    4.3925    0.6919   -0.1706 H   0  0  0  0  0  0  0  0  0  0  0  0 
    3.1604    1.9467   -0.0553 H   0  0  0  0  0  0  0  0  0  0  0  0 
    2.7481   -1.1736    2.5777 H   0  0  0  0  0  0  0  0  0  0  0  0 
    4.2291   -2.0990    2.8113 H   0  0  0  0  0  0  0  0  0  0  0  0 
  1 12  1  0  0  0  0 
  1 11  1  0  0  0  0 
  1  8  1  0  0  0  0 
  2  9  1  0  0  0  0 
  2 16  1  0  0  0  0 
  2 14  1  0  0  0  0 
  3 17  1  0  0  0  0 
  3 18  1  0  0  0  0 
  3  4  1  0  0  0  0 
  4 19  1  0  0  0  0 
  5  3  1  0  0  0  0 
  6  4  1  0  0  0  0 
  6 23  1  0  0  0  0 
  6 24  1  0  0  0  0 
  7  8  1  0  0  0  0 
  7  9  1  0  0  0  0 
  8  5  1  0  0  0  0 
  9  6  1  0  0  0  0 
 10  7  2  0  0  0  0 
 13  1  1  0  0  0  0 
 15  2  1  0  0  0  0 
 20  4  1  0  0  0  0 
 21  5  1  0  0  0  0 
 22  5  1  0  0  0  0 
M  END 
>  <HBA> 
3 
 
>  <HBD> 
0 
 
>  <TPSA> 
38.57 
 
>  <cid> 
27948 
 
>  <dipole> 
5.1 
 
>  <excitation_energy_1> 
3.657 
 
>  <excitation_energy_2> 
4.674 
 
>  <excitation_energy_3> 
4.998 
 
>  <excitation_energy_4> 
5.115 
 
>  <homo_energy> 
-5.173 
 
>  <homo_lumo_gap> 
4.999 
 
>  <logP> 
0.804 
 
>  <lumo_energy> 
-0.174 
 
>  <melting_point> 
30.98 
 
>  <molecular_refractivity> 
55.06 
 
>  <oscillator_strength_1> 
0.0017 
 
>  <oscillator_strength_2> 
0.0148 
 
>  <oscillator_strength_3> 
0.2333 
 
>  <oscillator_strength_4> 
0.0013 
 
>  <open_babel_can_smiles> 
S=C1N(C)CCCCN1C 
 
>  <mulliken_charges> 
24 
1   -0.306175 
2   -0.305789 
3   -0.25376 
4   -0.254061 
5   -0.149647 
6   -0.149019 
7   0.295873 
8   -0.385337 
9   -0.386754 
10   -0.311364 
11   0.14509 
12   0.193294 
13   0.168459 
14   0.144897 
15   0.192851 
16   0.168302 
17   0.139505 
18   0.14225 
19   0.139544 
20   0.142148 
21   0.161288 
22   0.153836 
23   0.160797 
24   0.153773 
 
>  <lowdin_charges> 
24 
1   -0.350141 
2   -0.349919 
3   -0.28479 
4   -0.28147 
5   -0.195089 
6   -0.19308 
7   -0.006085 
8   -0.110922 
9   -0.113437 
10   -0.280212 
11   0.14791 
12   0.177748 
13   0.152937 
14   0.147201 
15   0.175319 
16   0.155398 
17   0.150342 
18   0.146291 
19   0.148207 
20   0.1451 
21   0.153292 
22   0.156499 
23   0.151379 
24   0.157523 
 
$$$$ 
 
