PCCDB-ID:  13888 
public computational chemistry database (PCCDB) project, http://pccdb.org 
 
 22 22  0  0  0  0  0  0  0  0999 V2000 
    2.1062    1.2839   -0.7515 C   0  0  0  0  0  0  0  0  0  0  0  0 
    5.9611   -2.0174    5.1677 C   0  0  0  0  0  0  0  0  0  0  0  0 
    3.4423   -1.4787    1.6092 C   0  0  0  0  0  0  0  0  0  0  0  0 
    3.8314    0.9080    1.6774 C   0  0  0  0  0  0  0  0  0  0  0  0 
    4.2405   -1.6420    2.7356 C   0  0  0  0  0  0  0  0  0  0  0  0 
    4.6296    0.7446    2.8038 C   0  0  0  0  0  0  0  0  0  0  0  0 
    2.3549   -0.0894   -0.1518 C   0  0  0  0  0  0  0  0  0  0  0  0 
    5.7170   -0.6447    4.5647 C   0  0  0  0  0  0  0  0  0  0  0  0 
    3.2278   -0.2030    1.0664 C   0  0  0  0  0  0  0  0  0  0  0  0 
    4.8442   -0.5310    3.3465 C   0  0  0  0  0  0  0  0  0  0  0  0 
    1.8554   -1.0868   -0.6485 O   0  0  0  0  0  0  0  0  0  0  0  0 
    6.2198    0.3523    5.0590 O   0  0  0  0  0  0  0  0  0  0  0  0 
    3.0461    1.7537   -1.0652 H   0  0  0  0  0  0  0  0  0  0  0  0 
    1.6340    1.9533   -0.0225 H   0  0  0  0  0  0  0  0  0  0  0  0 
    1.4513    1.1735   -1.6172 H   0  0  0  0  0  0  0  0  0  0  0  0 
    6.4301   -2.6906    4.4402 H   0  0  0  0  0  0  0  0  0  0  0  0 
    5.0196   -2.4826    5.4834 H   0  0  0  0  0  0  0  0  0  0  0  0 
    6.6170   -1.9071    6.0327 H   0  0  0  0  0  0  0  0  0  0  0  0 
    2.9704   -2.3280    1.1265 H   0  0  0  0  0  0  0  0  0  0  0  0 
    3.6787    1.9050    1.2761 H   0  0  0  0  0  0  0  0  0  0  0  0 
    4.3917   -2.6388    3.1380 H   0  0  0  0  0  0  0  0  0  0  0  0 
    5.1029    1.5938    3.2854 H   0  0  0  0  0  0  0  0  0  0  0  0 
  1  7  1  0  0  0  0 
  1 14  1  0  0  0  0 
  2 17  1  0  0  0  0 
  2 18  1  0  0  0  0 
  3  5  1  0  0  0  0 
  4  6  2  0  0  0  0 
  5 21  1  0  0  0  0 
  5 10  2  0  0  0  0 
  6 22  1  0  0  0  0 
  6 10  1  0  0  0  0 
  7  9  1  0  0  0  0 
  8 12  2  0  0  0  0 
  8  2  1  0  0  0  0 
  9  3  2  0  0  0  0 
  9  4  1  0  0  0  0 
 10  8  1  0  0  0  0 
 11  7  2  0  0  0  0 
 13  1  1  0  0  0  0 
 15  1  1  0  0  0  0 
 16  2  1  0  0  0  0 
 19  3  1  0  0  0  0 
 20  4  1  0  0  0  0 
M  END 
>  <HBA> 
2 
 
>  <HBD> 
0 
 
>  <TPSA> 
34.14 
 
>  <cid> 
13888 
 
>  <dipole> 
0.01 
 
>  <excitation_energy_1> 
3.457 
 
>  <excitation_energy_2> 
3.505 
 
>  <excitation_energy_3> 
4.335 
 
>  <excitation_energy_4> 
4.748 
 
>  <homo_energy> 
-6.955 
 
>  <homo_lumo_gap> 
4.699 
 
>  <logP> 
2.092 
 
>  <lumo_energy> 
-2.256 
 
>  <melting_point> 
74.11 
 
>  <molecular_refractivity> 
46.83 
 
>  <oscillator_strength_1> 
0.0 
 
>  <oscillator_strength_2> 
0.0001 
 
>  <oscillator_strength_3> 
0.0399 
 
>  <oscillator_strength_4> 
0.4367 
 
>  <open_babel_can_smiles> 
CC(=O)c1ccc(cc1)C(=O)C 
 
>  <mulliken_charges> 
22 
1   -0.544162 
2   -0.544177 
3   -0.164947 
4   -0.183919 
5   -0.184194 
6   -0.165221 
7   0.411909 
8   0.411906 
9   0.082824 
10   0.083068 
11   -0.446213 
12   -0.44621 
13   0.174317 
14   0.174052 
15   0.184832 
16   0.174018 
17   0.174354 
18   0.184832 
19   0.169547 
20   0.141908 
21   0.141924 
22   0.169554 
 
>  <lowdin_charges> 
22 
1   -0.477334 
2   -0.477323 
3   -0.130212 
4   -0.149803 
5   -0.149809 
6   -0.130216 
7   0.164212 
8   0.1642 
9   -0.038352 
10   -0.038347 
11   -0.235589 
12   -0.235581 
13   0.172027 
14   0.172821 
15   0.177335 
16   0.172796 
17   0.172037 
18   0.177337 
19   0.180301 
20   0.164597 
21   0.1646 
22   0.180301 
 
$$$$ 
 
