PCCDB-ID:  31279 
public computational chemistry database (PCCDB) project, http://pccdb.org 
 
 18 17  0  0  0  0  0  0  0  0999 V2000 
    1.3675    0.9862   -0.3609 C   0  0  0  0  0  0  0  0  0  0  0  0 
    7.5781    0.8987    2.5701 C   0  0  0  0  0  0  0  0  0  0  0  0 
    2.3154    0.0961   -0.0664 C   0  0  0  0  0  0  0  0  0  0  0  0 
    6.7278    0.0341    2.0160 C   0  0  0  0  0  0  0  0  0  0  0  0 
    3.0378    0.0211    1.2501 C   0  0  0  0  0  0  0  0  0  0  0  0 
    5.2510   -0.0102    2.2945 C   0  0  0  0  0  0  0  0  0  0  0  0 
    4.4869    0.0797    1.0486 N   0  0  0  0  0  0  0  0  0  0  0  0 
    0.8688    0.9953   -1.3264 H   0  0  0  0  0  0  0  0  0  0  0  0 
    1.0482    1.7388    0.3576 H   0  0  0  0  0  0  0  0  0  0  0  0 
    8.6404    0.8853    2.3412 H   0  0  0  0  0  0  0  0  0  0  0  0 
    7.2442    1.6521    3.2813 H   0  0  0  0  0  0  0  0  0  0  0  0 
    2.6254   -0.6398   -0.8082 H   0  0  0  0  0  0  0  0  0  0  0  0 
    7.0866   -0.7027    1.2976 H   0  0  0  0  0  0  0  0  0  0  0  0 
    2.8186   -0.9432    1.7339 H   0  0  0  0  0  0  0  0  0  0  0  0 
    2.6558    0.8059    1.9315 H   0  0  0  0  0  0  0  0  0  0  0  0 
    4.9855    0.7726    3.0312 H   0  0  0  0  0  0  0  0  0  0  0  0 
    4.9950   -0.9742    2.7606 H   0  0  0  0  0  0  0  0  0  0  0  0 
    4.7194    0.9557    0.5819 H   0  0  0  0  0  0  0  0  0  0  0  0 
  1  3  2  0  0  0  0 
  1  9  1  0  0  0  0 
  2 11  1  0  0  0  0 
  3  5  1  0  0  0  0 
  4  6  1  0  0  0  0 
  4  2  2  0  0  0  0 
  5 14  1  0  0  0  0 
  5 15  1  0  0  0  0 
  6 17  1  0  0  0  0 
  6 16  1  0  0  0  0 
  7  5  1  0  0  0  0 
  7  6  1  0  0  0  0 
  8  1  1  0  0  0  0 
 10  2  1  0  0  0  0 
 12  3  1  0  0  0  0 
 13  4  1  0  0  0  0 
 18  7  1  0  0  0  0 
M  END 
>  <HBA> 
1 
 
>  <HBD> 
1 
 
>  <TPSA> 
12.03 
 
>  <cid> 
31279 
 
>  <dipole> 
0.75 
 
>  <excitation_energy_1> 
5.204 
 
>  <excitation_energy_2> 
5.629 
 
>  <excitation_energy_3> 
5.844 
 
>  <excitation_energy_4> 
6.25 
 
>  <homo_energy> 
-6.079 
 
>  <homo_lumo_gap> 
6.357 
 
>  <logP> 
1.339 
 
>  <lumo_energy> 
0.278 
 
>  <melting_point> 
-40.58 
 
>  <molecular_refractivity> 
32.81 
 
>  <oscillator_strength_1> 
0.0029 
 
>  <oscillator_strength_2> 
0.0103 
 
>  <oscillator_strength_3> 
0.0059 
 
>  <oscillator_strength_4> 
0.0111 
 
>  <open_babel_can_smiles> 
C=CCNCC=C 
 
>  <mulliken_charges> 
18 
1   -0.338837 
2   -0.33871 
3   -0.053634 
4   -0.053774 
5   -0.159471 
6   -0.159519 
7   -0.556018 
8   0.141894 
9   0.136716 
10   0.14189 
11   0.136687 
12   0.138299 
13   0.138301 
14   0.147946 
15   0.116582 
16   0.116602 
17   0.148005 
18   0.29704 
 
>  <lowdin_charges> 
18 
1   -0.339154 
2   -0.337336 
3   -0.150912 
4   -0.150895 
5   -0.19798 
6   -0.198274 
7   -0.364559 
8   0.159311 
9   0.155196 
10   0.157914 
11   0.154873 
12   0.158112 
13   0.157883 
14   0.148362 
15   0.122402 
16   0.122154 
17   0.148444 
18   0.254458 
 
$$$$ 
 
