PCCDB-ID:  11287 
public computational chemistry database (PCCDB) project, http://pccdb.org 
 
 24 25  0  0  0  0  0  0  0  0999 V2000 
    1.0280   -0.2859    0.1311 C   0  0  0  0  0  0  0  0  0  0  0  0 
    1.1008    2.6962    0.1910 C   0  0  0  0  0  0  0  0  0  0  0  0 
    4.6781   -1.3021   -0.1120 C   0  0  0  0  0  0  0  0  0  0  0  0 
    4.7959    3.5432   -0.0152 C   0  0  0  0  0  0  0  0  0  0  0  0 
    3.2713   -1.2857   -0.0277 C   0  0  0  0  0  0  0  0  0  0  0  0 
    3.3901    3.5915    0.0727 C   0  0  0  0  0  0  0  0  0  0  0  0 
    5.3595   -0.1139   -0.1280 C   0  0  0  0  0  0  0  0  0  0  0  0 
    5.4189    2.3249   -0.0792 C   0  0  0  0  0  0  0  0  0  0  0  0 
    2.5328   -0.1159    0.0421 C   0  0  0  0  0  0  0  0  0  0  0  0 
    2.5957    2.4571    0.0960 C   0  0  0  0  0  0  0  0  0  0  0  0 
    4.6641    1.1222   -0.0594 C   0  0  0  0  0  0  0  0  0  0  0  0 
    3.2214    1.1554    0.0289 C   0  0  0  0  0  0  0  0  0  0  0  0 
    0.7805   -1.3508    0.0963 H   0  0  0  0  0  0  0  0  0  0  0  0 
    0.4967    0.1963   -0.6946 H   0  0  0  0  0  0  0  0  0  0  0  0 
    0.6130    0.1107    1.0630 H   0  0  0  0  0  0  0  0  0  0  0  0 
    0.9072    3.7711    0.2541 H   0  0  0  0  0  0  0  0  0  0  0  0 
    0.6527    2.2356    1.0763 H   0  0  0  0  0  0  0  0  0  0  0  0 
    0.5568    2.3227   -0.6824 H   0  0  0  0  0  0  0  0  0  0  0  0 
    5.2065   -2.2502   -0.1645 H   0  0  0  0  0  0  0  0  0  0  0  0 
    5.3700    4.4657   -0.0300 H   0  0  0  0  0  0  0  0  0  0  0  0 
    2.7404   -2.2343   -0.0162 H   0  0  0  0  0  0  0  0  0  0  0  0 
    2.9056    4.5634    0.1239 H   0  0  0  0  0  0  0  0  0  0  0  0 
    6.4448   -0.0932   -0.1931 H   0  0  0  0  0  0  0  0  0  0  0  0 
    6.5019    2.2543   -0.1468 H   0  0  0  0  0  0  0  0  0  0  0  0 
  1 15  1  0  0  0  0 
  2 16  1  0  0  0  0 
  2 17  1  0  0  0  0 
  3  5  1  0  0  0  0 
  4  6  2  0  0  0  0 
  5 21  1  0  0  0  0 
  5  9  2  0  0  0  0 
  6 10  1  0  0  0  0 
  6 22  1  0  0  0  0 
  7  3  2  0  0  0  0 
  7 11  1  0  0  0  0 
  8 11  2  0  0  0  0 
  8  4  1  0  0  0  0 
  9  1  1  0  0  0  0 
 10  2  1  0  0  0  0 
 11 12  1  0  0  0  0 
 12  9  1  0  0  0  0 
 12 10  2  0  0  0  0 
 13  1  1  0  0  0  0 
 14  1  1  0  0  0  0 
 18  2  1  0  0  0  0 
 19  3  1  0  0  0  0 
 20  4  1  0  0  0  0 
 23  7  1  0  0  0  0 
 24  8  1  0  0  0  0 
M  END 
>  <HBA> 
0 
 
>  <HBD> 
0 
 
>  <TPSA> 
0.0 
 
>  <cid> 
11287 
 
>  <dipole> 
0.54 
 
>  <excitation_energy_1> 
4.234 
 
>  <excitation_energy_2> 
4.349 
 
>  <excitation_energy_3> 
5.252 
 
>  <excitation_energy_4> 
5.354 
 
>  <homo_energy> 
-5.505 
 
>  <homo_lumo_gap> 
4.705 
 
>  <logP> 
3.457 
 
>  <lumo_energy> 
-0.8 
 
>  <melting_point> 
57.33 
 
>  <molecular_refractivity> 
53.88 
 
>  <oscillator_strength_1> 
0.0903 
 
>  <oscillator_strength_2> 
0.0091 
 
>  <oscillator_strength_3> 
0.0 
 
>  <oscillator_strength_4> 
0.0068 
 
>  <open_babel_can_smiles> 
Cc1cccc2c1c(C)ccc2 
 
>  <mulliken_charges> 
24 
1   -0.531905 
2   -0.532344 
3   -0.126852 
4   -0.127008 
5   -0.196573 
6   -0.196421 
7   -0.196519 
8   -0.196429 
9   0.120143 
10   0.12048 
11   0.137484 
12   0.029026 
13   0.153259 
14   0.160995 
15   0.161251 
16   0.153316 
17   0.160992 
18   0.161222 
19   0.127456 
20   0.1275 
21   0.118913 
22   0.118912 
23   0.12656 
24   0.126543 
 
>  <lowdin_charges> 
24 
1   -0.441029 
2   -0.440978 
3   -0.160442 
4   -0.160754 
5   -0.173124 
6   -0.172775 
7   -0.158142 
8   -0.158201 
9   0.000257 
10   0.000354 
11   0.004374 
12   -0.015465 
13   0.154357 
14   0.159915 
15   0.158875 
16   0.154154 
17   0.159533 
18   0.159259 
19   0.157696 
20   0.157943 
21   0.153268 
22   0.153007 
23   0.153924 
24   0.153996 
 
$$$$ 
 
