PCCDB-ID:  18402 
public computational chemistry database (PCCDB) project, http://pccdb.org 
 
 25 24  0  0  0  0  0  0  0  0999 V2000 
    2.0884   -1.5513    0.0524 C   0  0  0  0  0  0  0  0  0  0  0  0 
    2.8291   -0.4397   -2.8083 C   0  0  0  0  0  0  0  0  0  0  0  0 
    1.6462    1.6769   -2.1552 C   0  0  0  0  0  0  0  0  0  0  0  0 
    1.4875   -0.3233   -0.6423 C   0  0  0  0  0  0  0  0  0  0  0  0 
    3.7006    0.9123   -0.9271 C   0  0  0  0  0  0  0  0  0  0  0  0 
    4.3507    2.2377    0.9190 C   0  0  0  0  0  0  0  0  0  0  0  0 
    2.4122    0.4501   -1.6205 C   0  0  0  0  0  0  0  0  0  0  0  0 
    5.5776    2.0489    0.6323 N   0  0  0  0  0  0  0  0  0  0  0  0 
    3.7985    2.9597    1.9328 O   0  0  0  0  0  0  0  0  0  0  0  0 
    3.3427    1.7163    0.2151 O   0  0  0  0  0  0  0  0  0  0  0  0 
    1.3340   -2.0304    0.6869 H   0  0  0  0  0  0  0  0  0  0  0  0 
    2.9308   -1.2824    0.6992 H   0  0  0  0  0  0  0  0  0  0  0  0 
    2.4385   -2.3053   -0.6617 H   0  0  0  0  0  0  0  0  0  0  0  0 
    1.9425   -0.7985   -3.3441 H   0  0  0  0  0  0  0  0  0  0  0  0 
    3.4056   -1.3156   -2.4902 H   0  0  0  0  0  0  0  0  0  0  0  0 
    3.4447    0.1197   -3.5234 H   0  0  0  0  0  0  0  0  0  0  0  0 
    0.7231    1.3683   -2.6605 H   0  0  0  0  0  0  0  0  0  0  0  0 
    2.2529    2.2346   -2.8795 H   0  0  0  0  0  0  0  0  0  0  0  0 
    1.3771    2.3590   -1.3428 H   0  0  0  0  0  0  0  0  0  0  0  0 
    1.1383    0.3788    0.1240 H   0  0  0  0  0  0  0  0  0  0  0  0 
    0.5952   -0.6313   -1.2054 H   0  0  0  0  0  0  0  0  0  0  0  0 
    4.3200    1.5135   -1.6017 H   0  0  0  0  0  0  0  0  0  0  0  0 
    4.3102    0.0698   -0.5865 H   0  0  0  0  0  0  0  0  0  0  0  0 
    6.2050    2.5245    1.2804 H   0  0  0  0  0  0  0  0  0  0  0  0 
    4.5172    3.3453    2.4566 H   0  0  0  0  0  0  0  0  0  0  0  0 
  1 11  1  0  0  0  0 
  1 12  1  0  0  0  0 
  2 15  1  0  0  0  0 
  2  7  1  0  0  0  0 
  3  7  1  0  0  0  0 
  3 19  1  0  0  0  0 
  4  1  1  0  0  0  0 
  4 20  1  0  0  0  0 
  5 23  1  0  0  0  0 
  5 10  1  0  0  0  0 
  6  9  1  0  0  0  0 
  7  5  1  0  0  0  0 
  7  4  1  0  0  0  0 
  8  6  2  0  0  0  0 
  8 24  1  0  0  0  0 
  9 25  1  0  0  0  0 
 10  6  1  0  0  0  0 
 13  1  1  0  0  0  0 
 14  2  1  0  0  0  0 
 16  2  1  0  0  0  0 
 17  3  1  0  0  0  0 
 18  3  1  0  0  0  0 
 21  4  1  0  0  0  0 
 22  5  1  0  0  0  0 
M  END 
>  <HBA> 
3 
 
>  <HBD> 
1 
 
>  <TPSA> 
52.32 
 
>  <cid> 
18402 
 
>  <dipole> 
1.15 
 
>  <excitation_energy_1> 
5.892 
 
>  <excitation_energy_2> 
6.392 
 
>  <excitation_energy_3> 
7.065 
 
>  <excitation_energy_4> 
7.175 
 
>  <homo_energy> 
-7.042 
 
>  <homo_lumo_gap> 
8.324 
 
>  <logP> 
2.218 
 
>  <lumo_energy> 
1.282 
 
>  <melting_point> 
68.48 
 
>  <molecular_refractivity> 
39.88 
 
>  <oscillator_strength_1> 
0.005 
 
>  <oscillator_strength_2> 
0.0442 
 
>  <oscillator_strength_3> 
0.0088 
 
>  <oscillator_strength_4> 
0.0017 
 
>  <open_babel_can_smiles> 
CCC(COC(=N)O)(C)C 
 
>  <mulliken_charges> 
25 
1   -0.459417 
2   -0.456231 
3   -0.451058 
4   -0.248417 
5   -0.015344 
6   0.645494 
7   0.062076 
8   -0.628405 
9   -0.572032 
10   -0.454864 
11   0.143983 
12   0.151419 
13   0.142779 
14   0.145249 
15   0.146273 
16   0.142135 
17   0.138252 
18   0.135049 
19   0.162372 
20   0.151878 
21   0.125328 
22   0.154456 
23   0.157141 
24   0.274804 
25   0.407077 
 
>  <lowdin_charges> 
25 
1   -0.452686 
2   -0.445893 
3   -0.446792 
4   -0.277485 
5   -0.124173 
6   0.184876 
7   0.000727 
8   -0.471582 
9   -0.367767 
10   -0.176473 
11   0.153496 
12   0.150844 
13   0.146926 
14   0.152729 
15   0.150138 
16   0.150618 
17   0.147796 
18   0.147122 
19   0.158684 
20   0.153002 
21   0.140252 
22   0.154122 
23   0.152931 
24   0.257046 
25   0.361546 
 
$$$$ 
 
