PCCDB-ID:  40818 
public computational chemistry database (PCCDB) project, http://pccdb.org 
 
 14 13  0  0  0  0  0  0  0  0999 V2000 
    1.2047    0.0150    0.5042 C   0  0  0  0  0  0  0  0  0  0  0  0 
    0.5588    1.2764   -0.0308 C   0  0  0  0  0  0  0  0  0  0  0  0 
    3.3869   -0.9062    0.8425 N   0  0  0  0  0  0  0  0  0  0  0  0 
    0.2252    3.5584    0.6078 N   0  0  0  0  0  0  0  0  0  0  0  0 
    4.5737   -0.7205    0.7631 O   0  0  0  0  0  0  0  0  0  0  0  0 
    2.7690   -1.8805    1.2214 O   0  0  0  0  0  0  0  0  0  0  0  0 
    0.4458    4.4086    1.4312 O   0  0  0  0  0  0  0  0  0  0  0  0 
   -0.4034    3.6157   -0.4296 O   0  0  0  0  0  0  0  0  0  0  0  0 
    2.6282    0.2162    0.4103 O   0  0  0  0  0  0  0  0  0  0  0  0 
    0.8084    2.3062    0.9455 O   0  0  0  0  0  0  0  0  0  0  0  0 
    0.9045   -0.8392   -0.1106 H   0  0  0  0  0  0  0  0  0  0  0  0 
    0.9153   -0.1726    1.5415 H   0  0  0  0  0  0  0  0  0  0  0  0 
   -0.5184    1.1177   -0.1420 H   0  0  0  0  0  0  0  0  0  0  0  0 
    0.9790    1.5616   -0.9989 H   0  0  0  0  0  0  0  0  0  0  0  0 
  1 12  1  0  0  0  0 
  2  1  1  0  0  0  0 
  2 10  1  0  0  0  0 
  3  6  2  0  0  0  0 
  4 10  1  0  0  0  0 
  4  7  2  0  0  0  0 
  5  3  2  0  0  0  0 
  8  4  2  0  0  0  0 
  9  1  1  0  0  0  0 
  9  3  1  0  0  0  0 
 11  1  1  0  0  0  0 
 13  2  1  0  0  0  0 
 14  2  1  0  0  0  0 
M  END 
>  <HBA> 
0 
 
>  <HBD> 
0 
 
>  <TPSA> 
110.1 
 
>  <cid> 
40818 
 
>  <dipole> 
3.23 
 
>  <excitation_energy_1> 
4.754 
 
>  <excitation_energy_2> 
4.758 
 
>  <excitation_energy_3> 
5.67 
 
>  <excitation_energy_4> 
5.672 
 
>  <homo_energy> 
-8.909 
 
>  <homo_lumo_gap> 
6.768 
 
>  <logP> 
0.449 
 
>  <lumo_energy> 
-2.142 
 
>  <melting_point> 
24.4 
 
>  <molecular_refractivity> 
30.11 
 
>  <oscillator_strength_1> 
0.0 
 
>  <oscillator_strength_2> 
0.0 
 
>  <oscillator_strength_3> 
0.0003 
 
>  <oscillator_strength_4> 
0.0006 
 
>  <open_babel_can_smiles> 
O=N(=O)OCCON(=O)=O 
 
>  <mulliken_charges> 
14 
1   -0.055488 
2   -0.055884 
3   0.756443 
4   0.756471 
5   -0.34269 
6   -0.364198 
7   -0.34271 
8   -0.364245 
9   -0.376515 
10   -0.376509 
11   0.186645 
12   0.195993 
13   0.186652 
14   0.196035 
 
>  <lowdin_charges> 
14 
1   -0.139998 
2   -0.140405 
3   0.37354 
4   0.379146 
5   -0.17688 
6   -0.214342 
7   -0.181206 
8   -0.213804 
9   -0.184538 
10   -0.184088 
11   0.171035 
12   0.171162 
13   0.168441 
14   0.171935 
 
$$$$ 
 
