PCCDB-ID:  69337 
public computational chemistry database (PCCDB) project, http://pccdb.org 
 
 16 15  0  0  0  0  0  0  0  0999 V2000 
    4.5989    1.7126    0.9174 C   0  0  0  0  0  0  0  0  0  0  0  0 
    0.0294    2.0842   -0.4392 C   0  0  0  0  0  0  0  0  0  0  0  0 
    3.6275    0.7539    0.2665 C   0  0  0  0  0  0  0  0  0  0  0  0 
    2.3184    2.2736   -0.9485 C   0  0  0  0  0  0  0  0  0  0  0  0 
    1.1650    2.8078   -0.9823 N   0  0  0  0  0  0  0  0  0  0  0  0 
    2.6386    1.0005   -0.4937 N   0  0  0  0  0  0  0  0  0  0  0  0 
    3.8311   -0.5558    0.5636 O   0  0  0  0  0  0  0  0  0  0  0  0 
    3.3775    2.9552   -1.4901 O   0  0  0  0  0  0  0  0  0  0  0  0 
    4.3598    2.7470    0.6790 H   0  0  0  0  0  0  0  0  0  0  0  0 
    5.6175    1.5093    0.5642 H   0  0  0  0  0  0  0  0  0  0  0  0 
    4.5843    1.5751    2.0060 H   0  0  0  0  0  0  0  0  0  0  0  0 
   -0.8281    2.2135   -1.1098 H   0  0  0  0  0  0  0  0  0  0  0  0 
   -0.2586    2.5103    0.5320 H   0  0  0  0  0  0  0  0  0  0  0  0 
    0.2180    1.0116   -0.3006 H   0  0  0  0  0  0  0  0  0  0  0  0 
    4.5909   -0.6371    1.1610 H   0  0  0  0  0  0  0  0  0  0  0  0 
    2.9820    3.7774   -1.8350 H   0  0  0  0  0  0  0  0  0  0  0  0 
  1 11  1  0  0  0  0 
  2 14  1  0  0  0  0 
  2 13  1  0  0  0  0 
  3  7  1  0  0  0  0 
  3  1  1  0  0  0  0 
  4  6  1  0  0  0  0 
  5  4  2  0  0  0  0 
  5  2  1  0  0  0  0 
  6  3  2  0  0  0  0 
  7 15  1  0  0  0  0 
  8  4  1  0  0  0  0 
  9  1  1  0  0  0  0 
 10  1  1  0  0  0  0 
 12  2  1  0  0  0  0 
 16  8  1  0  0  0  0 
M  END 
>  <HBA> 
4 
 
>  <HBD> 
2 
 
>  <TPSA> 
58.2 
 
>  <cid> 
69337 
 
>  <dipole> 
4.14 
 
>  <excitation_energy_1> 
5.033 
 
>  <excitation_energy_2> 
5.301 
 
>  <excitation_energy_3> 
5.406 
 
>  <excitation_energy_4> 
5.985 
 
>  <homo_energy> 
-6.234 
 
>  <homo_lumo_gap> 
5.899 
 
>  <logP> 
0.244 
 
>  <lumo_energy> 
-0.335 
 
>  <melting_point> 
82.24 
 
>  <molecular_refractivity> 
27.73 
 
>  <oscillator_strength_1> 
0.0896 
 
>  <oscillator_strength_2> 
0.0031 
 
>  <oscillator_strength_3> 
0.0037 
 
>  <oscillator_strength_4> 
0.0121 
 
>  <open_babel_can_smiles> 
C/N=C(\N=C(\O)/C)/O 
 
>  <mulliken_charges> 
16 
1   -0.547348 
2   -0.323086 
3   0.505237 
4   0.601173 
5   -0.461824 
6   -0.446443 
7   -0.560129 
8   -0.604713 
9   0.20923 
10   0.183199 
11   0.170793 
12   0.149127 
13   0.143241 
14   0.160062 
15   0.413402 
16   0.408079 
 
>  <lowdin_charges> 
16 
1   -0.476974 
2   -0.355921 
3   0.169508 
4   0.14572 
5   -0.255208 
6   -0.182555 
7   -0.346711 
8   -0.388799 
9   0.18833 
10   0.175271 
11   0.166452 
12   0.149354 
13   0.145382 
14   0.145543 
15   0.36052 
16   0.360088 
 
$$$$ 
 
