PCCDB-ID:  6920 
public computational chemistry database (PCCDB) project, http://pccdb.org 
 
 14 14  0  0  0  0  0  0  0  0999 V2000 
    3.0969    1.3826   -0.0421 C   0  0  0  0  0  0  0  0  0  0  0  0 
    4.7616   -2.7656   -0.3774 C   0  0  0  0  0  0  0  0  0  0  0  0 
    4.4139   -1.3897   -0.3206 C   0  0  0  0  0  0  0  0  0  0  0  0 
    3.6989   -3.5821   -0.0778 C   0  0  0  0  0  0  0  0  0  0  0  0 
    2.3444    0.0803    0.1817 C   0  0  0  0  0  0  0  0  0  0  0  0 
    3.0942   -1.1772    0.0207 C   0  0  0  0  0  0  0  0  0  0  0  0 
    1.1588    0.0701    0.4844 O   0  0  0  0  0  0  0  0  0  0  0  0 
    2.2622   -2.6930    0.2766 S   0  0  0  0  0  0  0  0  0  0  0  0 
    3.9486    1.4659    0.6429 H   0  0  0  0  0  0  0  0  0  0  0  0 
    2.4126    2.2159    0.1267 H   0  0  0  0  0  0  0  0  0  0  0  0 
    3.4889    1.4359   -1.0646 H   0  0  0  0  0  0  0  0  0  0  0  0 
    5.7506   -3.1331   -0.6281 H   0  0  0  0  0  0  0  0  0  0  0  0 
    5.1112   -0.5841   -0.5236 H   0  0  0  0  0  0  0  0  0  0  0  0 
    3.6867   -4.6641   -0.0479 H   0  0  0  0  0  0  0  0  0  0  0  0 
  1 10  1  0  0  0  0 
  1  5  1  0  0  0  0 
  1  9  1  0  0  0  0 
  2  3  1  0  0  0  0 
  2  4  2  0  0  0  0 
  3  6  2  0  0  0  0 
  4 14  1  0  0  0  0 
  4  8  1  0  0  0  0 
  5  7  2  0  0  0  0 
  6  5  1  0  0  0  0 
  6  8  1  0  0  0  0 
 11  1  1  0  0  0  0 
 12  2  1  0  0  0  0 
 13  3  1  0  0  0  0 
M  END 
>  <HBA> 
2 
 
>  <HBD> 
0 
 
>  <TPSA> 
45.31 
 
>  <cid> 
6920 
 
>  <dipole> 
3.67 
 
>  <excitation_energy_1> 
3.732 
 
>  <excitation_energy_2> 
4.591 
 
>  <excitation_energy_3> 
4.909 
 
>  <excitation_energy_4> 
6.015 
 
>  <homo_energy> 
-6.716 
 
>  <homo_lumo_gap> 
5.029 
 
>  <logP> 
1.951 
 
>  <lumo_energy> 
-1.687 
 
>  <melting_point> 
37.44 
 
>  <molecular_refractivity> 
34.51 
 
>  <oscillator_strength_1> 
0.0002 
 
>  <oscillator_strength_2> 
0.1603 
 
>  <oscillator_strength_3> 
0.1434 
 
>  <oscillator_strength_4> 
0.0031 
 
>  <open_babel_can_smiles> 
CC(=O)c1cccs1 
 
>  <mulliken_charges> 
14 
1   -0.538369 
2   -0.103458 
3   -0.115775 
4   -0.336338 
5   0.451747 
6   -0.21354 
7   -0.456616 
8   0.306456 
9   0.1718 
10   0.184575 
11   0.172393 
12   0.148542 
13   0.14831 
14   0.180272 
 
>  <lowdin_charges> 
14 
1   -0.470059 
2   -0.183036 
3   -0.164861 
4   -0.29907 
5   0.156217 
6   -0.201486 
7   -0.242792 
8   0.364218 
9   0.170893 
10   0.17726 
11   0.170171 
12   0.167926 
13   0.17088 
14   0.18374 
 
$$$$ 
 
