PCCDB-ID:  32750 
public computational chemistry database (PCCDB) project, http://pccdb.org 
 
 32 33  0  0  0  0  0  0  0  0999 V2000 
    4.4086   -0.9331   -1.3557 C   0  0  0  0  0  0  0  0  0  0  0  0 
    6.3504   -1.8479   -0.2915 C   0  0  0  0  0  0  0  0  0  0  0  0 
    4.8491    6.3693    4.1003 C   0  0  0  0  0  0  0  0  0  0  0  0 
    3.5567    6.8794    4.3369 C   0  0  0  0  0  0  0  0  0  0  0  0 
    5.0446    5.1899    3.3912 C   0  0  0  0  0  0  0  0  0  0  0  0 
    2.4260    6.2191    3.8689 C   0  0  0  0  0  0  0  0  0  0  0  0 
    4.3668    1.1259    0.9020 C   0  0  0  0  0  0  0  0  0  0  0  0 
    5.5611    0.3263    0.3782 C   0  0  0  0  0  0  0  0  0  0  0  0 
    2.3687    3.1285    1.9824 C   0  0  0  0  0  0  0  0  0  0  0  0 
    3.9197    4.5023    2.9068 C   0  0  0  0  0  0  0  0  0  0  0  0 
    3.7336    3.2788    2.1512 C   0  0  0  0  0  0  0  0  0  0  0  0 
    2.6299    5.0341    3.1570 C   0  0  0  0  0  0  0  0  0  0  0  0 
    4.7892    2.3801    1.6704 C   0  0  0  0  0  0  0  0  0  0  0  0 
    1.7102    4.1692    2.5783 N   0  0  0  0  0  0  0  0  0  0  0  0 
    5.1800   -0.9961   -0.1216 N   0  0  0  0  0  0  0  0  0  0  0  0 
    5.9744    2.6195    1.8829 O   0  0  0  0  0  0  0  0  0  0  0  0 
    4.1418   -1.9476   -1.6717 H   0  0  0  0  0  0  0  0  0  0  0  0 
    4.9582   -0.4497   -2.1888 H   0  0  0  0  0  0  0  0  0  0  0  0 
    3.4769   -0.3806   -1.1997 H   0  0  0  0  0  0  0  0  0  0  0  0 
    6.0341   -2.8511   -0.5989 H   0  0  0  0  0  0  0  0  0  0  0  0 
    6.8847   -1.9369    0.6604 H   0  0  0  0  0  0  0  0  0  0  0  0 
    7.0643   -1.4688   -1.0500 H   0  0  0  0  0  0  0  0  0  0  0  0 
    5.7098    6.9124    4.4812 H   0  0  0  0  0  0  0  0  0  0  0  0 
    3.4401    7.8039    4.8956 H   0  0  0  0  0  0  0  0  0  0  0  0 
    6.0359    4.7934    3.2063 H   0  0  0  0  0  0  0  0  0  0  0  0 
    1.4280    6.6095    4.0500 H   0  0  0  0  0  0  0  0  0  0  0  0 
    3.7705    0.4840    1.5656 H   0  0  0  0  0  0  0  0  0  0  0  0 
    3.6962    1.4290    0.0875 H   0  0  0  0  0  0  0  0  0  0  0  0 
    6.2644    0.1874    1.2043 H   0  0  0  0  0  0  0  0  0  0  0  0 
    6.0998    0.9185   -0.3870 H   0  0  0  0  0  0  0  0  0  0  0  0 
    1.8142    2.3476    1.4813 H   0  0  0  0  0  0  0  0  0  0  0  0 
    0.7085    4.2871    2.5960 H   0  0  0  0  0  0  0  0  0  0  0  0 
  1 19  1  0  0  0  0 
  1 15  1  0  0  0  0 
  2 15  1  0  0  0  0 
  2 21  1  0  0  0  0 
  3  4  1  0  0  0  0 
  3 23  1  0  0  0  0 
  4 24  1  0  0  0  0 
  5  3  2  0  0  0  0 
  6 26  1  0  0  0  0 
  6  4  2  0  0  0  0 
  7 27  1  0  0  0  0 
  7 13  1  0  0  0  0 
  8  7  1  0  0  0  0 
  8 29  1  0  0  0  0 
  9 11  2  0  0  0  0 
  9 14  1  0  0  0  0 
 10 12  2  0  0  0  0 
 10  5  1  0  0  0  0 
 11 10  1  0  0  0  0 
 12  6  1  0  0  0  0 
 13 16  2  0  0  0  0 
 13 11  1  0  0  0  0 
 14 32  1  0  0  0  0 
 14 12  1  0  0  0  0 
 15  8  1  0  0  0  0 
 17  1  1  0  0  0  0 
 18  1  1  0  0  0  0 
 20  2  1  0  0  0  0 
 22  2  1  0  0  0  0 
 25  5  1  0  0  0  0 
 28  7  1  0  0  0  0 
 30  8  1  0  0  0  0 
 31  9  1  0  0  0  0 
M  END 
>  <HBA> 
2 
 
>  <HBD> 
1 
 
>  <TPSA> 
36.1 
 
>  <cid> 
32750 
 
>  <dipole> 
4.69 
 
>  <excitation_energy_1> 
3.855 
 
>  <excitation_energy_2> 
4.083 
 
>  <excitation_energy_3> 
4.351 
 
>  <excitation_energy_4> 
4.525 
 
>  <homo_energy> 
-5.619 
 
>  <homo_lumo_gap> 
4.653 
 
>  <logP> 
2.302 
 
>  <lumo_energy> 
-0.966 
 
>  <melting_point> 
131.47 
 
>  <molecular_refractivity> 
65.81 
 
>  <oscillator_strength_1> 
0.0006 
 
>  <oscillator_strength_2> 
0.0007 
 
>  <oscillator_strength_3> 
0.1529 
 
>  <oscillator_strength_4> 
0.0428 
 
>  <open_babel_can_smiles> 
CN(CCC(=O)c1c[nH]c2c1cccc2)C 
 
>  <mulliken_charges> 
32 
1   -0.29828 
2   -0.29244 
3   -0.141759 
4   -0.146407 
5   -0.195376 
6   -0.163869 
7   -0.378727 
8   -0.106971 
9   0.013329 
10   0.080275 
11   0.008437 
12   0.311409 
13   0.408801 
14   -0.69164 
15   -0.374439 
16   -0.495114 
17   0.146883 
18   0.117046 
19   0.144217 
20   0.144141 
21   0.151013 
22   0.118037 
23   0.126913 
24   0.126634 
25   0.164526 
26   0.123861 
27   0.169536 
28   0.151596 
29   0.159295 
30   0.120904 
31   0.164474 
32   0.333695 
 
>  <lowdin_charges> 
32 
1   -0.358761 
2   -0.356045 
3   -0.170775 
4   -0.157862 
5   -0.14915 
6   -0.186936 
7   -0.317397 
8   -0.198631 
9   -0.108182 
10   -0.015569 
11   -0.098047 
12   0.028236 
13   0.158673 
14   -0.176682 
15   -0.185744 
16   -0.262871 
17   0.148954 
18   0.120615 
19   0.14554 
20   0.146736 
21   0.150935 
22   0.121527 
23   0.158507 
24   0.15722 
25   0.176898 
26   0.15597 
27   0.167266 
28   0.155754 
29   0.158012 
30   0.125567 
31   0.173296 
32   0.292945 
 
$$$$ 
 
