PCCDB-ID:  14091 
public computational chemistry database (PCCDB) project, http://pccdb.org 
 
 24 24  0  0  0  0  0  0  0  0999 V2000 
    1.3843   -1.8865   -0.8231 C   0  0  0  0  0  0  0  0  0  0  0  0 
    5.4171   -3.9965    0.4889 C   0  0  0  0  0  0  0  0  0  0  0  0 
    2.9029   -1.6869   -0.8150 C   0  0  0  0  0  0  0  0  0  0  0  0 
    7.7742   -0.9990    0.6127 C   0  0  0  0  0  0  0  0  0  0  0  0 
    6.8852    0.0711    0.6953 C   0  0  0  0  0  0  0  0  0  0  0  0 
    3.4981   -1.6813    0.6086 C   0  0  0  0  0  0  0  0  0  0  0  0 
    7.2770   -2.3004    0.5428 C   0  0  0  0  0  0  0  0  0  0  0  0 
    5.5131   -0.1782    0.7059 C   0  0  0  0  0  0  0  0  0  0  0  0 
    5.9014   -2.5639    0.5496 C   0  0  0  0  0  0  0  0  0  0  0  0 
    5.0003   -1.4796    0.6314 C   0  0  0  0  0  0  0  0  0  0  0  0 
    0.9873   -1.8824   -1.8445 H   0  0  0  0  0  0  0  0  0  0  0  0 
    0.8766   -1.0903   -0.2647 H   0  0  0  0  0  0  0  0  0  0  0  0 
    1.1066   -2.8420   -0.3611 H   0  0  0  0  0  0  0  0  0  0  0  0 
    6.2596   -4.6869    0.3825 H   0  0  0  0  0  0  0  0  0  0  0  0 
    4.7391   -4.1704   -0.3552 H   0  0  0  0  0  0  0  0  0  0  0  0 
    4.8719   -4.2812    1.3983 H   0  0  0  0  0  0  0  0  0  0  0  0 
    3.1573   -0.7397   -1.3086 H   0  0  0  0  0  0  0  0  0  0  0  0 
    3.3833   -2.4749   -1.4098 H   0  0  0  0  0  0  0  0  0  0  0  0 
    8.8472   -0.8260    0.6060 H   0  0  0  0  0  0  0  0  0  0  0  0 
    7.2538    1.0918    0.7557 H   0  0  0  0  0  0  0  0  0  0  0  0 
    3.2274   -2.6183    1.1114 H   0  0  0  0  0  0  0  0  0  0  0  0 
    3.0183   -0.8774    1.1826 H   0  0  0  0  0  0  0  0  0  0  0  0 
    7.9713   -3.1360    0.4835 H   0  0  0  0  0  0  0  0  0  0  0  0 
    4.8175    0.6560    0.7771 H   0  0  0  0  0  0  0  0  0  0  0  0 
  1  3  1  0  0  0  0 
  1 13  1  0  0  0  0 
  1 12  1  0  0  0  0 
  2  9  1  0  0  0  0 
  2 16  1  0  0  0  0 
  3  6  1  0  0  0  0 
  4  5  2  0  0  0  0 
  5  8  1  0  0  0  0 
  5 20  1  0  0  0  0 
  6 10  1  0  0  0  0 
  6 21  1  0  0  0  0 
  6 22  1  0  0  0  0 
  7  9  2  0  0  0  0 
  7  4  1  0  0  0  0 
  8 24  1  0  0  0  0 
  9 10  1  0  0  0  0 
 10  8  2  0  0  0  0 
 11  1  1  0  0  0  0 
 14  2  1  0  0  0  0 
 15  2  1  0  0  0  0 
 17  3  1  0  0  0  0 
 18  3  1  0  0  0  0 
 19  4  1  0  0  0  0 
 23  7  1  0  0  0  0 
M  END 
>  <HBA> 
0 
 
>  <HBD> 
0 
 
>  <TPSA> 
0.0 
 
>  <cid> 
14091 
 
>  <dipole> 
0.51 
 
>  <excitation_energy_1> 
5.219 
 
>  <excitation_energy_2> 
5.777 
 
>  <excitation_energy_3> 
5.907 
 
>  <excitation_energy_4> 
6.095 
 
>  <homo_energy> 
-6.231 
 
>  <homo_lumo_gap> 
6.4 
 
>  <logP> 
2.947 
 
>  <lumo_energy> 
0.169 
 
>  <melting_point> 
10.66 
 
>  <molecular_refractivity> 
45.99 
 
>  <oscillator_strength_1> 
0.0015 
 
>  <oscillator_strength_2> 
0.0317 
 
>  <oscillator_strength_3> 
0.0066 
 
>  <oscillator_strength_4> 
0.0048 
 
>  <open_babel_can_smiles> 
CCCc1ccccc1C 
 
>  <mulliken_charges> 
24 
1   -0.441202 
2   -0.539675 
3   -0.246842 
4   -0.126987 
5   -0.129859 
6   -0.340827 
7   -0.185727 
8   -0.183835 
9   0.132285 
10   0.119227 
11   0.144529 
12   0.142377 
13   0.14177 
14   0.153804 
15   0.16095 
16   0.161579 
17   0.139204 
18   0.138887 
19   0.124198 
20   0.12417 
21   0.136881 
22   0.138169 
23   0.118253 
24   0.118672 
 
>  <lowdin_charges> 
24 
1   -0.445797 
2   -0.445661 
3   -0.270968 
4   -0.159204 
5   -0.160887 
6   -0.276767 
7   -0.169317 
8   -0.167729 
9   -0.008712 
10   -0.009592 
11   0.150159 
12   0.147919 
13   0.146325 
14   0.157071 
15   0.158098 
16   0.158846 
17   0.143687 
18   0.142961 
19   0.15366 
20   0.154477 
21   0.147116 
22   0.148421 
23   0.15298 
24   0.152914 
 
$$$$ 
 
