PCCDB-ID:  11669 
public computational chemistry database (PCCDB) project, http://pccdb.org 
 
 21 20  0  0  0  0  0  0  0  0999 V2000 
    2.9274   -0.3745    1.2670 C   0  0  0  0  0  0  0  0  0  0  0  0 
    0.8712    0.2860    0.0813 C   0  0  0  0  0  0  0  0  0  0  0  0 
    2.6282   -0.8824   -2.2343 C   0  0  0  0  0  0  0  0  0  0  0  0 
    2.9390    1.5748   -1.7726 C   0  0  0  0  0  0  0  0  0  0  0  0 
    4.6519   -0.0778   -1.0079 C   0  0  0  0  0  0  0  0  0  0  0  0 
    2.3584   -0.0027    0.1139 C   0  0  0  0  0  0  0  0  0  0  0  0 
    3.1414    0.1507   -1.2010 C   0  0  0  0  0  0  0  0  0  0  0  0 
    2.3353   -0.4794    2.1731 H   0  0  0  0  0  0  0  0  0  0  0  0 
    3.9859   -0.5871    1.3669 H   0  0  0  0  0  0  0  0  0  0  0  0 
    0.4114    0.0609    1.0482 H   0  0  0  0  0  0  0  0  0  0  0  0 
    0.3502   -0.3061   -0.6810 H   0  0  0  0  0  0  0  0  0  0  0  0 
    0.6661    1.3397   -0.1455 H   0  0  0  0  0  0  0  0  0  0  0  0 
    3.1975   -0.7985   -3.1680 H   0  0  0  0  0  0  0  0  0  0  0  0 
    1.5721   -0.7301   -2.4800 H   0  0  0  0  0  0  0  0  0  0  0  0 
    2.7445   -1.9048   -1.8570 H   0  0  0  0  0  0  0  0  0  0  0  0 
    3.5220    1.6985   -2.6931 H   0  0  0  0  0  0  0  0  0  0  0  0 
    3.2715    2.3369   -1.0579 H   0  0  0  0  0  0  0  0  0  0  0  0 
    1.8910    1.7752   -2.0188 H   0  0  0  0  0  0  0  0  0  0  0  0 
    5.1732    0.0508   -1.9634 H   0  0  0  0  0  0  0  0  0  0  0  0 
    4.8659   -1.0903   -0.6482 H   0  0  0  0  0  0  0  0  0  0  0  0 
    5.0801    0.6355   -0.2948 H   0  0  0  0  0  0  0  0  0  0  0  0 
  1  9  1  0  0  0  0 
  1  8  1  0  0  0  0 
  2  6  1  0  0  0  0 
  2 10  1  0  0  0  0 
  3 15  1  0  0  0  0 
  3  7  1  0  0  0  0 
  4  7  1  0  0  0  0 
  4 17  1  0  0  0  0 
  5 20  1  0  0  0  0 
  5 21  1  0  0  0  0 
  6  1  2  0  0  0  0 
  7  5  1  0  0  0  0 
  7  6  1  0  0  0  0 
 11  2  1  0  0  0  0 
 12  2  1  0  0  0  0 
 13  3  1  0  0  0  0 
 14  3  1  0  0  0  0 
 16  4  1  0  0  0  0 
 18  4  1  0  0  0  0 
 19  5  1  0  0  0  0 
M  END 
>  <HBA> 
0 
 
>  <HBD> 
0 
 
>  <TPSA> 
0.0 
 
>  <cid> 
11669 
 
>  <dipole> 
0.47 
 
>  <excitation_energy_1> 
6.101 
 
>  <excitation_energy_2> 
6.601 
 
>  <excitation_energy_3> 
6.646 
 
>  <excitation_energy_4> 
6.654 
 
>  <homo_energy> 
-6.512 
 
>  <homo_lumo_gap> 
7.355 
 
>  <logP> 
2.609 
 
>  <lumo_energy> 
0.844 
 
>  <melting_point> 
-25.72 
 
>  <molecular_refractivity> 
35.03 
 
>  <oscillator_strength_1> 
0.0195 
 
>  <oscillator_strength_2> 
0.0013 
 
>  <oscillator_strength_3> 
0.1899 
 
>  <oscillator_strength_4> 
0.0506 
 
>  <open_babel_can_smiles> 
CC(=C)C(C)(C)C 
 
>  <mulliken_charges> 
21 
1   -0.410354 
2   -0.522833 
3   -0.44512 
4   -0.44833 
5   -0.455481 
6   0.237525 
7   0.039599 
8   0.126852 
9   0.134929 
10   0.150939 
11   0.153311 
12   0.156426 
13   0.139307 
14   0.1411 
15   0.146995 
16   0.139437 
17   0.146321 
18   0.142597 
19   0.136479 
20   0.144913 
21   0.145387 
 
>  <lowdin_charges> 
21 
1   -0.368748 
2   -0.444377 
3   -0.438798 
4   -0.44225 
5   -0.443149 
6   0.008635 
7   0.016195 
8   0.152192 
9   0.155013 
10   0.156279 
11   0.155334 
12   0.15502 
13   0.147923 
14   0.145652 
15   0.15036 
16   0.148261 
17   0.1517 
18   0.146852 
19   0.147678 
20   0.148944 
21   0.151285 
 
$$$$ 
 
