PCCDB-ID:  20678 
public computational chemistry database (PCCDB) project, http://pccdb.org 
 
 12 11  0  0  0  0  0  0  0  0999 V2000 
    0.7560   -0.0482    0.4740 C   0  0  0  0  0  0  0  0  0  0  0  0 
    2.5694    2.2830    0.1920 C   0  0  0  0  0  0  0  0  0  0  0  0 
    1.9619   -0.1289   -0.0973 C   0  0  0  0  0  0  0  0  0  0  0  0 
    4.0294    0.5957   -0.8728 N   0  0  0  0  0  0  0  0  0  0  0  0 
    2.8566    0.9302   -0.2577 N   0  0  0  0  0  0  0  0  0  0  0  0 
    4.8241    1.5082   -1.0219 O   0  0  0  0  0  0  0  0  0  0  0  0 
    0.1397   -0.9365    0.5471 H   0  0  0  0  0  0  0  0  0  0  0  0 
    0.3479    0.8726    0.8760 H   0  0  0  0  0  0  0  0  0  0  0  0 
    2.4000    2.2905    1.2736 H   0  0  0  0  0  0  0  0  0  0  0  0 
    1.6788    2.6663   -0.3165 H   0  0  0  0  0  0  0  0  0  0  0  0 
    3.4364    2.8947   -0.0569 H   0  0  0  0  0  0  0  0  0  0  0  0 
    2.3606   -1.0556   -0.4978 H   0  0  0  0  0  0  0  0  0  0  0  0 
  1  7  1  0  0  0  0 
  1  8  1  0  0  0  0 
  2  9  1  0  0  0  0 
  3  1  2  0  0  0  0 
  4  5  1  0  0  0  0 
  5  3  1  0  0  0  0 
  5  2  1  0  0  0  0 
  6  4  2  0  0  0  0 
 10  2  1  0  0  0  0 
 11  2  1  0  0  0  0 
 12  3  1  0  0  0  0 
M  END 
>  <HBA> 
3 
 
>  <HBD> 
0 
 
>  <TPSA> 
32.67 
 
>  <cid> 
20678 
 
>  <dipole> 
3.1 
 
>  <excitation_energy_1> 
3.249 
 
>  <excitation_energy_2> 
4.724 
 
>  <excitation_energy_3> 
5.966 
 
>  <excitation_energy_4> 
6.114 
 
>  <homo_energy> 
-6.493 
 
>  <homo_lumo_gap> 
5.018 
 
>  <logP> 
0.743 
 
>  <lumo_energy> 
-1.475 
 
>  <melting_point> 
-23.48 
 
>  <molecular_refractivity> 
23.7 
 
>  <oscillator_strength_1> 
0.0012 
 
>  <oscillator_strength_2> 
0.2662 
 
>  <oscillator_strength_3> 
0.0489 
 
>  <oscillator_strength_4> 
0.0004 
 
>  <open_babel_can_smiles> 
CN(N=O)C=C 
 
>  <mulliken_charges> 
12 
1   -0.388239 
2   -0.344836 
3   0.125308 
4   0.166011 
5   -0.250377 
6   -0.355821 
7   0.157142 
8   0.148139 
9   0.179662 
10   0.179721 
11   0.212366 
12   0.170923 
 
>  <lowdin_charges> 
12 
1   -0.382444 
2   -0.375497 
3   -0.092479 
4   0.065248 
5   -0.013214 
6   -0.239617 
7   0.17435 
8   0.164701 
9   0.165852 
10   0.168236 
11   0.188385 
12   0.176478 
 
$$$$ 
 
