PCCDB-ID:  20498 
public computational chemistry database (PCCDB) project, http://pccdb.org 
 
 24 23  0  0  1  0  0  0  0  0999 V2000 
    2.6416   -1.1867   -0.9663 C   0  0  0  0  0  0  0  0  0  0  0  0 
    4.5470    4.7501   -2.8106 C   0  0  0  0  0  0  0  0  0  0  0  0 
    1.1557    0.7461    1.7542 C   0  0  0  0  0  0  0  0  0  0  0  0 
    3.3099    1.2283   -0.3990 C   0  0  0  0  0  0  0  0  0  0  0  0 
    2.5616    1.8762   -1.5614 C   0  0  0  0  0  0  0  0  0  0  0  0 
    2.6659   -0.0841    0.0902 C   0  0  1  0  0  0  0  0  0  0  0  0 
    4.1522    3.3038   -2.6172 C   0  0  0  0  0  0  0  0  0  0  0  0 
    4.7211    2.3512   -3.1055 O   0  0  0  0  0  0  0  0  0  0  0  0 
    1.3105    0.1060    0.5041 O   0  0  0  0  0  0  0  0  0  0  0  0 
    3.0604    3.2100   -1.8228 O   0  0  0  0  0  0  0  0  0  0  0  0 
    3.6484   -1.3760   -1.3538 H   0  0  0  0  0  0  0  0  0  0  0  0 
    1.9937   -0.9137   -1.8054 H   0  0  0  0  0  0  0  0  0  0  0  0 
    2.2523   -2.1123   -0.5316 H   0  0  0  0  0  0  0  0  0  0  0  0 
    5.4441    4.8026   -3.4284 H   0  0  0  0  0  0  0  0  0  0  0  0 
    4.7319    5.2243   -1.8412 H   0  0  0  0  0  0  0  0  0  0  0  0 
    3.7318    5.3005   -3.2919 H   0  0  0  0  0  0  0  0  0  0  0  0 
    0.0882    0.7249    1.9904 H   0  0  0  0  0  0  0  0  0  0  0  0 
    1.4885    1.7950    1.7417 H   0  0  0  0  0  0  0  0  0  0  0  0 
    1.7060    0.2181    2.5495 H   0  0  0  0  0  0  0  0  0  0  0  0 
    3.3513    1.9471    0.4286 H   0  0  0  0  0  0  0  0  0  0  0  0 
    4.3447    1.0269   -0.6981 H   0  0  0  0  0  0  0  0  0  0  0  0 
    1.5076    2.0148   -1.3144 H   0  0  0  0  0  0  0  0  0  0  0  0 
    2.6485    1.2852   -2.4755 H   0  0  0  0  0  0  0  0  0  0  0  0 
    3.2522   -0.4389    0.9552 H   0  0  0  0  0  0  0  0  0  0  0  0 
  1 13  1  0  0  0  0 
  1  6  1  0  0  0  0 
  2  7  1  0  0  0  0 
  2 15  1  0  0  0  0 
  3 17  1  0  0  0  0 
  3 19  1  0  0  0  0 
  4  6  1  0  0  0  0 
  4 20  1  0  0  0  0 
  5 22  1  0  0  0  0 
  5  4  1  0  0  0  0 
  6  9  1  0  0  0  0 
  6 24  1  1  0  0  0 
  7 10  1  0  0  0  0 
  8  7  2  0  0  0  0 
  9  3  1  0  0  0  0 
 10  5  1  0  0  0  0 
 11  1  1  0  0  0  0 
 12  1  1  0  0  0  0 
 14  2  1  0  0  0  0 
 16  2  1  0  0  0  0 
 18  3  1  0  0  0  0 
 21  4  1  0  0  0  0 
 23  5  1  0  0  0  0 
M  END 
>  <HBA> 
3 
 
>  <HBD> 
0 
 
>  <TPSA> 
35.53 
 
>  <cid> 
20498 
 
>  <dipole> 
2.08 
 
>  <excitation_energy_1> 
5.81 
 
>  <excitation_energy_2> 
6.412 
 
>  <excitation_energy_3> 
6.644 
 
>  <excitation_energy_4> 
6.879 
 
>  <homo_energy> 
-6.914 
 
>  <homo_lumo_gap> 
7.353 
 
>  <logP> 
0.975 
 
>  <lumo_energy> 
0.438 
 
>  <melting_point> 
-23.74 
 
>  <molecular_refractivity> 
38.13 
 
>  <oscillator_strength_1> 
0.0011 
 
>  <oscillator_strength_2> 
0.0129 
 
>  <oscillator_strength_3> 
0.0165 
 
>  <oscillator_strength_4> 
0.0093 
 
>  <open_babel_can_smiles> 
CO[C@H](CCOC(=O)C)C 
 
>  <mulliken_charges> 
24 
1   -0.456081 
2   -0.522546 
3   -0.198597 
4   -0.303963 
5   -0.045688 
6   0.143889 
7   0.6 
8   -0.471451 
9   -0.470839 
10   -0.457734 
11   0.150425 
12   0.157843 
13   0.155671 
14   0.181312 
15   0.179359 
16   0.18183 
17   0.159198 
18   0.133683 
19   0.130649 
20   0.143292 
21   0.161839 
22   0.165555 
23   0.168324 
24   0.114031 
 
>  <lowdin_charges> 
24 
1   -0.450206 
2   -0.466098 
3   -0.279455 
4   -0.305725 
5   -0.132373 
6   0.005703 
7   0.201839 
8   -0.270852 
9   -0.276846 
10   -0.199729 
11   0.156258 
12   0.157087 
13   0.158857 
14   0.175162 
15   0.176161 
16   0.178785 
17   0.154266 
18   0.13011 
19   0.133467 
20   0.149258 
21   0.159986 
22   0.157158 
23   0.158322 
24   0.128865 
 
$$$$ 
 
