PCCDB-ID:  7274 
public computational chemistry database (PCCDB) project, http://pccdb.org 
 
 19 18  0  0  0  0  0  0  0  0999 V2000 
    5.3005    0.2131    1.0234 C   0  0  0  0  0  0  0  0  0  0  0  0 
    2.6070   -1.5328   -3.8842 C   0  0  0  0  0  0  0  0  0  0  0  0 
    4.3938   -0.1462   -4.9786 C   0  0  0  0  0  0  0  0  0  0  0  0 
    4.4536   -0.6996    0.5485 C   0  0  0  0  0  0  0  0  0  0  0  0 
    4.8576   -1.8089   -0.3783 C   0  0  0  0  0  0  0  0  0  0  0  0 
    3.8033   -0.9333   -3.8384 C   0  0  0  0  0  0  0  0  0  0  0  0 
    4.6605   -1.0003   -2.6145 C   0  0  0  0  0  0  0  0  0  0  0  0 
    5.7413   -0.4505   -2.5302 O   0  0  0  0  0  0  0  0  0  0  0  0 
    4.1142   -1.7463   -1.6221 O   0  0  0  0  0  0  0  0  0  0  0  0 
    4.9767    0.9909    1.7097 H   0  0  0  0  0  0  0  0  0  0  0  0 
    6.3501    0.2177    0.7389 H   0  0  0  0  0  0  0  0  0  0  0  0 
    1.9867   -1.4786   -4.7752 H   0  0  0  0  0  0  0  0  0  0  0  0 
    2.2158   -2.0883   -3.0396 H   0  0  0  0  0  0  0  0  0  0  0  0 
    3.7171   -0.1363   -5.8378 H   0  0  0  0  0  0  0  0  0  0  0  0 
    5.3550   -0.5697   -5.2910 H   0  0  0  0  0  0  0  0  0  0  0  0 
    4.5965    0.8872   -4.6758 H   0  0  0  0  0  0  0  0  0  0  0  0 
    3.4014   -0.6753    0.8306 H   0  0  0  0  0  0  0  0  0  0  0  0 
    4.5957   -2.7877    0.0353 H   0  0  0  0  0  0  0  0  0  0  0  0 
    5.9272   -1.7749   -0.5947 H   0  0  0  0  0  0  0  0  0  0  0  0 
  1 10  1  0  0  0  0 
  2  6  2  0  0  0  0 
  2 13  1  0  0  0  0 
  3 16  1  0  0  0  0 
  3  6  1  0  0  0  0 
  4 17  1  0  0  0  0 
  4  1  2  0  0  0  0 
  5 18  1  0  0  0  0 
  5  4  1  0  0  0  0 
  6  7  1  0  0  0  0 
  7  8  2  0  0  0  0 
  7  9  1  0  0  0  0 
  9  5  1  0  0  0  0 
 11  1  1  0  0  0  0 
 12  2  1  0  0  0  0 
 14  3  1  0  0  0  0 
 15  3  1  0  0  0  0 
 19  5  1  0  0  0  0 
M  END 
>  <HBA> 
2 
 
>  <HBD> 
0 
 
>  <TPSA> 
26.3 
 
>  <cid> 
7274 
 
>  <dipole> 
1.59 
 
>  <excitation_energy_1> 
4.782 
 
>  <excitation_energy_2> 
5.496 
 
>  <excitation_energy_3> 
5.856 
 
>  <excitation_energy_4> 
6.384 
 
>  <homo_energy> 
-7.151 
 
>  <homo_lumo_gap> 
6.15 
 
>  <logP> 
1.292 
 
>  <lumo_energy> 
-1.001 
 
>  <melting_point> 
-52.56 
 
>  <molecular_refractivity> 
36.1 
 
>  <oscillator_strength_1> 
0.0001 
 
>  <oscillator_strength_2> 
0.027 
 
>  <oscillator_strength_3> 
0.2215 
 
>  <oscillator_strength_4> 
0.0678 
 
>  <open_babel_can_smiles> 
C=CCOC(=O)C(=C)C 
 
>  <mulliken_charges> 
19 
1   -0.318056 
2   -0.369105 
3   -0.50028 
4   -0.064613 
5   -0.095057 
6   0.126704 
7   0.598227 
8   -0.481792 
9   -0.480604 
10   0.146984 
11   0.156155 
12   0.147399 
13   0.170577 
14   0.146424 
15   0.171915 
16   0.173576 
17   0.138063 
18   0.157458 
19   0.176024 
 
>  <lowdin_charges> 
19 
1   -0.309634 
2   -0.304141 
3   -0.434216 
4   -0.161789 
5   -0.125562 
6   -0.026789 
7   0.19389 
8   -0.265861 
9   -0.196364 
10   0.163016 
11   0.163477 
12   0.163001 
13   0.175359 
14   0.155433 
15   0.168068 
16   0.168016 
17   0.15454 
18   0.157118 
19   0.162438 
 
$$$$ 
 
