PCCDB-ID:  28835 
public computational chemistry database (PCCDB) project, http://pccdb.org 
 
 28 27  0  0  0  0  0  0  0  0999 V2000 
    0.9756   -0.0262    1.0458 C   0  0  0  0  0  0  0  0  0  0  0  0 
    3.9534   -5.4242   -0.8905 C   0  0  0  0  0  0  0  0  0  0  0  0 
    8.6450   -1.7534    1.1785 C   0  0  0  0  0  0  0  0  0  0  0  0 
    2.1187    0.0465    0.6643 C   0  0  0  0  0  0  0  0  0  0  0  0 
    2.8658   -4.5607   -0.2697 C   0  0  0  0  0  0  0  0  0  0  0  0 
    7.8415   -2.1600   -0.0470 C   0  0  0  0  0  0  0  0  0  0  0  0 
    3.5060    0.1152    0.2063 C   0  0  0  0  0  0  0  0  0  0  0  0 
    4.2818   -1.1914    0.4791 C   0  0  0  0  0  0  0  0  0  0  0  0 
    3.7059   -2.3409   -0.3484 C   0  0  0  0  0  0  0  0  0  0  0  0 
    5.7629   -1.0079    0.1375 C   0  0  0  0  0  0  0  0  0  0  0  0 
    3.5253   -2.2720   -1.5452 O   0  0  0  0  0  0  0  0  0  0  0  0 
    6.2770    0.0465   -0.1613 O   0  0  0  0  0  0  0  0  0  0  0  0 
    3.4256   -3.4103    0.4145 O   0  0  0  0  0  0  0  0  0  0  0  0 
    6.4182   -2.1807    0.2360 O   0  0  0  0  0  0  0  0  0  0  0  0 
   -0.0367   -0.0821    1.3757 H   0  0  0  0  0  0  0  0  0  0  0  0 
    3.5022   -6.3124   -1.3476 H   0  0  0  0  0  0  0  0  0  0  0  0 
    4.6723   -5.7545   -0.1337 H   0  0  0  0  0  0  0  0  0  0  0  0 
    4.4860   -4.8691   -1.6670 H   0  0  0  0  0  0  0  0  0  0  0  0 
    9.7162   -1.8224    0.9573 H   0  0  0  0  0  0  0  0  0  0  0  0 
    8.4264   -2.4124    2.0251 H   0  0  0  0  0  0  0  0  0  0  0  0 
    8.4207   -0.7217    1.4634 H   0  0  0  0  0  0  0  0  0  0  0  0 
    2.3202   -5.0965    0.5101 H   0  0  0  0  0  0  0  0  0  0  0  0 
    2.1640   -4.2040   -1.0275 H   0  0  0  0  0  0  0  0  0  0  0  0 
    8.0661   -3.1841   -0.3537 H   0  0  0  0  0  0  0  0  0  0  0  0 
    8.0226   -1.4827   -0.8849 H   0  0  0  0  0  0  0  0  0  0  0  0 
    4.0313    0.9409    0.6981 H   0  0  0  0  0  0  0  0  0  0  0  0 
    3.5411    0.3173   -0.8701 H   0  0  0  0  0  0  0  0  0  0  0  0 
    4.2173   -1.4605    1.5383 H   0  0  0  0  0  0  0  0  0  0  0  0 
  1 15  1  0  0  0  0 
  2  5  1  0  0  0  0 
  2 17  1  0  0  0  0 
  3 21  1  0  0  0  0 
  3 20  1  0  0  0  0 
  4  1  3  0  0  0  0 
  5 13  1  0  0  0  0 
  5 22  1  0  0  0  0 
  6 14  1  0  0  0  0 
  6  3  1  0  0  0  0 
  7  8  1  0  0  0  0 
  7  4  1  0  0  0  0 
  7 26  1  0  0  0  0 
  8 28  1  0  0  0  0 
  9 13  1  0  0  0  0 
  9  8  1  0  0  0  0 
 10 14  1  0  0  0  0 
 10  8  1  0  0  0  0 
 11  9  2  0  0  0  0 
 12 10  2  0  0  0  0 
 16  2  1  0  0  0  0 
 18  2  1  0  0  0  0 
 19  3  1  0  0  0  0 
 23  5  1  0  0  0  0 
 24  6  1  0  0  0  0 
 25  6  1  0  0  0  0 
 27  7  1  0  0  0  0 
M  END 
>  <HBA> 
4 
 
>  <HBD> 
0 
 
>  <TPSA> 
52.6 
 
>  <cid> 
28835 
 
>  <dipole> 
3.29 
 
>  <excitation_energy_1> 
5.7 
 
>  <excitation_energy_2> 
5.776 
 
>  <excitation_energy_3> 
6.165 
 
>  <excitation_energy_4> 
6.188 
 
>  <homo_energy> 
-7.151 
 
>  <homo_lumo_gap> 
6.988 
 
>  <logP> 
0.752 
 
>  <lumo_energy> 
-0.163 
 
>  <melting_point> 
13.01 
 
>  <molecular_refractivity> 
50.92 
 
>  <oscillator_strength_1> 
0.007 
 
>  <oscillator_strength_2> 
0.0015 
 
>  <oscillator_strength_3> 
0.0051 
 
>  <oscillator_strength_4> 
0.0004 
 
>  <open_babel_can_smiles> 
CCOC(=O)C(C(=O)OCC)CC#C 
 
>  <mulliken_charges> 
28 
1   -0.52341 
2   -0.46181 
3   -0.464618 
4   0.367843 
5   -0.048347 
6   -0.048277 
7   -0.41061 
8   -0.271407 
9   0.651039 
10   0.660771 
11   -0.484442 
12   -0.477117 
13   -0.453314 
14   -0.466444 
15   0.189199 
16   0.151243 
17   0.158465 
18   0.17906 
19   0.154564 
20   0.159912 
21   0.177895 
22   0.156114 
23   0.17451 
24   0.158285 
25   0.175785 
26   0.193251 
27   0.20573 
28   0.196131 
 
>  <lowdin_charges> 
28 
1   -0.254031 
2   -0.45712 
3   -0.453374 
4   -0.042829 
5   -0.129233 
6   -0.12357 
7   -0.252645 
8   -0.164221 
9   0.197789 
10   0.202584 
11   -0.263978 
12   -0.254196 
13   -0.177693 
14   -0.187662 
15   0.203536 
16   0.160131 
17   0.157792 
18   0.168197 
19   0.159783 
20   0.158123 
21   0.165245 
22   0.156146 
23   0.162067 
24   0.154695 
25   0.162022 
26   0.183338 
27   0.185623 
28   0.18348 
 
$$$$ 
 
