PCCDB-ID:  7728 
public computational chemistry database (PCCDB) project, http://pccdb.org 
 
 20 20  0  0  0  0  0  0  0  0999 V2000 
    3.4211   -0.1969   -1.2078 C   0  0  0  0  0  0  0  0  0  0  0  0 
    4.5077    4.3536    3.3551 C   0  0  0  0  0  0  0  0  0  0  0  0 
    2.5473    0.0274    0.0394 C   0  0  0  0  0  0  0  0  0  0  0  0 
    3.1436    3.5559    1.3663 C   0  0  0  0  0  0  0  0  0  0  0  0 
    2.6661    2.5180    0.5746 C   0  0  0  0  0  0  0  0  0  0  0  0 
    3.8264    1.0128    2.0011 C   0  0  0  0  0  0  0  0  0  0  0  0 
    3.9644    3.2612    2.4654 C   0  0  0  0  0  0  0  0  0  0  0  0 
    3.0076    1.1950    0.8824 C   0  0  0  0  0  0  0  0  0  0  0  0 
    4.2974    1.9987    2.7745 N   0  0  0  0  0  0  0  0  0  0  0  0 
    3.0551   -1.0480   -1.7934 H   0  0  0  0  0  0  0  0  0  0  0  0 
    4.4608   -0.3983   -0.9266 H   0  0  0  0  0  0  0  0  0  0  0  0 
    3.4182    0.6868   -1.8560 H   0  0  0  0  0  0  0  0  0  0  0  0 
    3.6982    4.9244    3.8272 H   0  0  0  0  0  0  0  0  0  0  0  0 
    5.1160    5.0675    2.7858 H   0  0  0  0  0  0  0  0  0  0  0  0 
    5.1274    3.9132    4.1391 H   0  0  0  0  0  0  0  0  0  0  0  0 
    2.5489   -0.8842    0.6499 H   0  0  0  0  0  0  0  0  0  0  0  0 
    1.5072    0.1883   -0.2733 H   0  0  0  0  0  0  0  0  0  0  0  0 
    2.8823    4.5872    1.1428 H   0  0  0  0  0  0  0  0  0  0  0  0 
    2.0248    2.7312   -0.2786 H   0  0  0  0  0  0  0  0  0  0  0  0 
    4.1177    0.0038    2.2959 H   0  0  0  0  0  0  0  0  0  0  0  0 
  1 11  1  0  0  0  0 
  1  3  1  0  0  0  0 
  2 13  1  0  0  0  0 
  2 15  1  0  0  0  0 
  3 16  1  0  0  0  0 
  3  8  1  0  0  0  0 
  4  7  2  0  0  0  0 
  5  8  2  0  0  0  0 
  5  4  1  0  0  0  0 
  6 20  1  0  0  0  0 
  6  9  2  0  0  0  0 
  7  9  1  0  0  0  0 
  7  2  1  0  0  0  0 
  8  6  1  0  0  0  0 
 10  1  1  0  0  0  0 
 12  1  1  0  0  0  0 
 14  2  1  0  0  0  0 
 17  3  1  0  0  0  0 
 18  4  1  0  0  0  0 
 19  5  1  0  0  0  0 
M  END 
>  <HBA> 
1 
 
>  <HBD> 
0 
 
>  <TPSA> 
12.89 
 
>  <cid> 
7728 
 
>  <dipole> 
2.04 
 
>  <excitation_energy_1> 
4.873 
 
>  <excitation_energy_2> 
5.142 
 
>  <excitation_energy_3> 
5.245 
 
>  <excitation_energy_4> 
5.86 
 
>  <homo_energy> 
-6.531 
 
>  <homo_lumo_gap> 
6.133 
 
>  <logP> 
1.952 
 
>  <lumo_energy> 
-0.397 
 
>  <melting_point> 
26.83 
 
>  <molecular_refractivity> 
38.98 
 
>  <oscillator_strength_1> 
0.0038 
 
>  <oscillator_strength_2> 
0.0008 
 
>  <oscillator_strength_3> 
0.0525 
 
>  <oscillator_strength_4> 
0.1419 
 
>  <open_babel_can_smiles> 
CCc1ccc(nc1)C 
 
>  <mulliken_charges> 
20 
1   -0.434697 
2   -0.519731 
3   -0.345111 
4   -0.163284 
5   -0.149196 
6   -0.017152 
7   0.305044 
8   0.159414 
9   -0.460593 
10   0.146322 
11   0.153109 
12   0.14798 
13   0.159071 
14   0.158507 
15   0.176178 
16   0.147759 
17   0.145576 
18   0.128003 
19   0.132146 
20   0.130653 
 
>  <lowdin_charges> 
20 
1   -0.440527 
2   -0.452421 
3   -0.269385 
4   -0.181372 
5   -0.13812 
6   -0.101502 
7   0.052369 
8   -0.025093 
9   -0.159191 
10   0.151686 
11   0.151505 
12   0.150132 
13   0.161593 
14   0.161493 
15   0.171386 
16   0.151576 
17   0.148971 
18   0.158534 
19   0.15805 
20   0.150315 
 
$$$$ 
 
