PCCDB-ID:  73119 
public computational chemistry database (PCCDB) project, http://pccdb.org 
 
 19 20  0  0  0  0  0  0  0  0999 V2000 
    1.0491   -0.1966   -0.0095 C   0  0  0  0  0  0  0  0  0  0  0  0 
    5.2306    2.3546   -0.0483 C   0  0  0  0  0  0  0  0  0  0  0  0 
    4.6460   -1.3603   -0.1608 C   0  0  0  0  0  0  0  0  0  0  0  0 
    3.2126   -1.3499   -0.1185 C   0  0  0  0  0  0  0  0  0  0  0  0 
    5.4170   -0.1031   -0.1353 C   0  0  0  0  0  0  0  0  0  0  0  0 
    3.1792    1.0602   -0.0263 C   0  0  0  0  0  0  0  0  0  0  0  0 
    5.1719   -2.5673   -0.2232 N   0  0  0  0  0  0  0  0  0  0  0  0 
    2.6473   -2.5416   -0.1475 N   0  0  0  0  0  0  0  0  0  0  0  0 
    2.5130   -0.1694   -0.0495 N   0  0  0  0  0  0  0  0  0  0  0  0 
    4.5856    1.0337   -0.0749 N   0  0  0  0  0  0  0  0  0  0  0  0 
    6.6300   -0.0316   -0.1642 O   0  0  0  0  0  0  0  0  0  0  0  0 
    2.5772    2.1180    0.0335 O   0  0  0  0  0  0  0  0  0  0  0  0 
    3.9087   -3.6339   -0.2272 S   0  0  0  0  0  0  0  0  0  0  0  0 
    0.7164   -0.8102    0.8317 H   0  0  0  0  0  0  0  0  0  0  0  0 
    0.6585   -0.6273   -0.9360 H   0  0  0  0  0  0  0  0  0  0  0  0 
    0.7042    0.8287    0.1047 H   0  0  0  0  0  0  0  0  0  0  0  0 
    6.3015    2.1938   -0.1507 H   0  0  0  0  0  0  0  0  0  0  0  0 
    5.0097    2.8592    0.8952 H   0  0  0  0  0  0  0  0  0  0  0  0 
    4.8502    2.9665   -0.8681 H   0  0  0  0  0  0  0  0  0  0  0  0 
  1 16  1  0  0  0  0 
  1 14  1  0  0  0  0 
  2 18  1  0  0  0  0 
  3  5  1  0  0  0  0 
  3  4  1  0  0  0  0 
  4  9  1  0  0  0  0 
  5 10  1  0  0  0  0 
  6 12  2  0  0  0  0 
  7  3  2  0  0  0  0 
  8  4  2  0  0  0  0 
  9  6  1  0  0  0  0 
  9  1  1  0  0  0  0 
 10  2  1  0  0  0  0 
 10  6  1  0  0  0  0 
 11  5  2  0  0  0  0 
 13  7  1  0  0  0  0 
 13  8  1  0  0  0  0 
 15  1  1  0  0  0  0 
 17  2  1  0  0  0  0 
 19  2  1  0  0  0  0 
M  END 
>  <HBA> 
7 
 
>  <HBD> 
0 
 
>  <TPSA> 
98.02 
 
>  <cid> 
73119 
 
>  <dipole> 
2.44 
 
>  <excitation_energy_1> 
3.957 
 
>  <excitation_energy_2> 
4.014 
 
>  <excitation_energy_3> 
4.681 
 
>  <excitation_energy_4> 
4.844 
 
>  <homo_energy> 
-6.996 
 
>  <homo_lumo_gap> 
4.484 
 
>  <logP> 
-0.911 
 
>  <lumo_energy> 
-2.512 
 
>  <melting_point> 
155.11 
 
>  <molecular_refractivity> 
48.46 
 
>  <oscillator_strength_1> 
0.0004 
 
>  <oscillator_strength_2> 
0.137 
 
>  <oscillator_strength_3> 
0.0574 
 
>  <oscillator_strength_4> 
0.0005 
 
>  <open_babel_can_smiles> 
Cn1c(=O)n(C)c2c(c1=O)nsn2 
 
>  <mulliken_charges> 
19 
1   -0.327082 
2   -0.318649 
3   0.158645 
4   0.514097 
5   0.646254 
6   0.792383 
7   -0.512518 
8   -0.566874 
9   -0.573046 
10   -0.566971 
11   -0.468321 
12   -0.502975 
13   0.568635 
14   0.18531 
15   0.183624 
16   0.212123 
17   0.205917 
18   0.183656 
19   0.185793 
 
>  <lowdin_charges> 
19 
1   -0.344733 
2   -0.347816 
3   -0.045723 
4   0.048779 
5   0.160651 
6   0.197929 
7   -0.262546 
8   -0.349378 
9   -0.064732 
10   -0.08982 
11   -0.241035 
12   -0.286626 
13   0.570036 
14   0.171022 
15   0.168802 
16   0.189239 
17   0.183939 
18   0.169515 
19   0.172496 
 
$$$$ 
 
