PCCDB-ID:  36617 
public computational chemistry database (PCCDB) project, http://pccdb.org 
 
 24 24  0  0  0  0  0  0  0  0999 V2000 
    3.2705   -0.8290   -0.6449 C   0  0  0  0  0  0  0  0  0  0  0  0 
    2.9999   -0.4678    2.9799 C   0  0  0  0  0  0  0  0  0  0  0  0 
    2.4196    0.2711    0.0016 C   0  0  0  0  0  0  0  0  0  0  0  0 
    3.8842    0.4441    2.1210 C   0  0  0  0  0  0  0  0  0  0  0  0 
    2.1499    2.2586    1.5303 C   0  0  0  0  0  0  0  0  0  0  0  0 
    4.1292    2.1430    0.2437 C   0  0  0  0  0  0  0  0  0  0  0  0 
    2.2121    3.3931    0.5136 C   0  0  0  0  0  0  0  0  0  0  0  0 
    3.1503    1.2085    1.0004 C   0  0  0  0  0  0  0  0  0  0  0  0 
    1.4295    4.2893    0.3370 O   0  0  0  0  0  0  0  0  0  0  0  0 
    3.3545    3.2640   -0.2231 O   0  0  0  0  0  0  0  0  0  0  0  0 
    2.6710   -1.3911   -1.3691 H   0  0  0  0  0  0  0  0  0  0  0  0 
    3.6493   -1.5453    0.0923 H   0  0  0  0  0  0  0  0  0  0  0  0 
    4.1329   -0.4224   -1.1859 H   0  0  0  0  0  0  0  0  0  0  0  0 
    3.5865   -0.9198    3.7873 H   0  0  0  0  0  0  0  0  0  0  0  0 
    2.5621   -1.2848    2.3963 H   0  0  0  0  0  0  0  0  0  0  0  0 
    2.1765    0.0887    3.4429 H   0  0  0  0  0  0  0  0  0  0  0  0 
    1.5720   -0.1937    0.5203 H   0  0  0  0  0  0  0  0  0  0  0  0 
    1.9798    0.8929   -0.7901 H   0  0  0  0  0  0  0  0  0  0  0  0 
    4.6967   -0.1497    1.6807 H   0  0  0  0  0  0  0  0  0  0  0  0 
    4.3722    1.1817    2.7731 H   0  0  0  0  0  0  0  0  0  0  0  0 
    1.1213    1.9050    1.6361 H   0  0  0  0  0  0  0  0  0  0  0  0 
    2.4625    2.6617    2.5036 H   0  0  0  0  0  0  0  0  0  0  0  0 
    4.5958    1.6835   -0.6303 H   0  0  0  0  0  0  0  0  0  0  0  0 
    4.9200    2.5194    0.9055 H   0  0  0  0  0  0  0  0  0  0  0  0 
  1  3  1  0  0  0  0 
  1 12  1  0  0  0  0 
  2 16  1  0  0  0  0 
  2 14  1  0  0  0  0 
  3 17  1  0  0  0  0 
  3  8  1  0  0  0  0 
  4 20  1  0  0  0  0 
  4  2  1  0  0  0  0 
  5 21  1  0  0  0  0 
  5 22  1  0  0  0  0 
  6 24  1  0  0  0  0 
  6  8  1  0  0  0  0 
  7  5  1  0  0  0  0 
  8  5  1  0  0  0  0 
  8  4  1  0  0  0  0 
  9  7  2  0  0  0  0 
 10  6  1  0  0  0  0 
 10  7  1  0  0  0  0 
 11  1  1  0  0  0  0 
 13  1  1  0  0  0  0 
 15  2  1  0  0  0  0 
 18  3  1  0  0  0  0 
 19  4  1  0  0  0  0 
 23  6  1  0  0  0  0 
M  END 
>  <HBA> 
2 
 
>  <HBD> 
0 
 
>  <TPSA> 
26.3 
 
>  <cid> 
36617 
 
>  <dipole> 
4.74 
 
>  <excitation_energy_1> 
5.644 
 
>  <excitation_energy_2> 
6.637 
 
>  <excitation_energy_3> 
7.023 
 
>  <excitation_energy_4> 
7.142 
 
>  <homo_energy> 
-7.108 
 
>  <homo_lumo_gap> 
7.513 
 
>  <logP> 
1.74 
 
>  <lumo_energy> 
0.405 
 
>  <melting_point> 
25.82 
 
>  <molecular_refractivity> 
39.48 
 
>  <oscillator_strength_1> 
0.0006 
 
>  <oscillator_strength_2> 
0.0096 
 
>  <oscillator_strength_3> 
0.0103 
 
>  <oscillator_strength_4> 
0.0002 
 
>  <open_babel_can_smiles> 
CCC1(CC)COC(=O)C1 
 
>  <mulliken_charges> 
24 
1   -0.46029 
2   -0.456173 
3   -0.274808 
4   -0.281253 
5   -0.396748 
6   -0.049264 
7   0.610549 
8   0.069436 
9   -0.45755 
10   -0.447873 
11   0.154631 
12   0.15166 
13   0.147657 
14   0.151468 
15   0.153286 
16   0.151672 
17   0.143392 
18   0.150596 
19   0.141724 
20   0.133297 
21   0.180161 
22   0.175889 
23   0.159869 
24   0.148669 
 
>  <lowdin_charges> 
24 
1   -0.452752 
2   -0.450767 
3   -0.280446 
4   -0.278234 
5   -0.31466 
6   -0.135595 
7   0.19133 
8   -0.009836 
9   -0.23667 
10   -0.192069 
11   0.15914 
12   0.151054 
13   0.14849 
14   0.156718 
15   0.152245 
16   0.151683 
17   0.148367 
18   0.152714 
19   0.146749 
20   0.144234 
21   0.172831 
22   0.172243 
23   0.156913 
24   0.146318 
 
$$$$ 
 
