PCCDB-ID:  36619 
public computational chemistry database (PCCDB) project, http://pccdb.org 
 
 22 23  0  0  1  0  0  0  0  0999 V2000 
   -1.3657    0.9985    0.4074 C   0  0  0  0  0  0  0  0  0  0  0  0 
   -1.6647    0.0565   -0.6514 C   0  0  0  0  0  0  0  0  0  0  0  0 
   -0.1207    1.3759    0.8192 C   0  0  0  0  0  0  0  0  0  0  0  0 
    2.5613   -2.3523   -0.6197 C   0  0  0  0  0  0  0  0  0  0  0  0 
   -0.8932   -0.9873   -1.0223 C   0  0  0  0  0  0  0  0  0  0  0  0 
    1.1452    0.8959    0.3091 C   0  0  0  0  0  0  0  0  0  0  0  0 
    1.0647   -2.6581   -0.8281 C   0  0  0  0  0  0  0  0  0  0  0  0 
    2.6500   -0.8294   -0.8468 C   0  0  0  0  0  0  0  0  0  0  0  0 
    0.3208   -1.4310   -0.2421 C   0  0  1  0  0  0  0  0  0  0  0  0 
    1.3580   -0.3144   -0.2513 C   0  0  0  0  0  0  0  0  0  0  0  0 
   -2.2128    1.5431    0.8225 H   0  0  0  0  0  0  0  0  0  0  0  0 
   -2.5832    0.2409   -1.2088 H   0  0  0  0  0  0  0  0  0  0  0  0 
   -0.0645    2.1956    1.5348 H   0  0  0  0  0  0  0  0  0  0  0  0 
    3.2120   -2.9279   -1.2865 H   0  0  0  0  0  0  0  0  0  0  0  0 
    2.8539   -2.5893    0.4114 H   0  0  0  0  0  0  0  0  0  0  0  0 
   -1.1554   -1.5530   -1.9160 H   0  0  0  0  0  0  0  0  0  0  0  0 
    1.9872    1.5841    0.3891 H   0  0  0  0  0  0  0  0  0  0  0  0 
    0.7513   -3.6006   -0.3676 H   0  0  0  0  0  0  0  0  0  0  0  0 
    0.8545   -2.7381   -1.9033 H   0  0  0  0  0  0  0  0  0  0  0  0 
    2.6892   -0.6161   -1.9262 H   0  0  0  0  0  0  0  0  0  0  0  0 
    3.5352   -0.3629   -0.4002 H   0  0  0  0  0  0  0  0  0  0  0  0 
    0.0213   -1.6227    0.8008 H   0  0  0  0  0  0  0  0  0  0  0  0 
  1  3  2  0  0  0  0 
  1 11  1  0  0  0  0 
  2  1  1  0  0  0  0 
  3 13  1  0  0  0  0 
  4 15  1  0  0  0  0 
  5  2  2  0  0  0  0 
  5  9  1  0  0  0  0 
  6 17  1  0  0  0  0 
  6  3  1  0  0  0  0 
  7  4  1  0  0  0  0 
  7 18  1  0  0  0  0 
  7  9  1  0  0  0  0 
  8  4  1  0  0  0  0 
  8 21  1  0  0  0  0 
  8 10  1  0  0  0  0 
  9 22  1  1  0  0  0 
 10  9  1  0  0  0  0 
 10  6  2  0  0  0  0 
 12  2  1  0  0  0  0 
 14  4  1  0  0  0  0 
 16  5  1  0  0  0  0 
 19  7  1  0  0  0  0 
 20  8  1  0  0  0  0 
M  END 
>  <HBA> 
0 
 
>  <HBD> 
0 
 
>  <TPSA> 
0.0 
 
>  <cid> 
36619 
 
>  <dipole> 
0.74 
 
>  <excitation_energy_1> 
4.083 
 
>  <excitation_energy_2> 
4.824 
 
>  <excitation_energy_3> 
5.154 
 
>  <excitation_energy_4> 
5.45 
 
>  <homo_energy> 
-5.499 
 
>  <homo_lumo_gap> 
4.751 
 
>  <logP> 
2.839 
 
>  <lumo_energy> 
-0.748 
 
>  <melting_point> 
48.73 
 
>  <molecular_refractivity> 
44.53 
 
>  <oscillator_strength_1> 
0.0867 
 
>  <oscillator_strength_2> 
0.0032 
 
>  <oscillator_strength_3> 
0.0008 
 
>  <oscillator_strength_4> 
0.0089 
 
>  <open_babel_can_smiles> 
C1=CC=C2[C@@H](C=C1)CCC2 
 
>  <mulliken_charges> 
22 
1   -0.147329 
2   -0.113378 
3   -0.135867 
4   -0.27788 
5   -0.129997 
6   -0.188513 
7   -0.294695 
8   -0.327409 
9   -0.162803 
10   0.154324 
11   0.123333 
12   0.125917 
13   0.123196 
14   0.135596 
15   0.141885 
16   0.123777 
17   0.120005 
18   0.141105 
19   0.136795 
20   0.153494 
21   0.147842 
22   0.1506 
 
>  <lowdin_charges> 
22 
1   -0.17174 
2   -0.17198 
3   -0.159472 
4   -0.279857 
5   -0.157423 
6   -0.191908 
7   -0.278814 
8   -0.279587 
9   -0.127049 
10   0.006393 
11   0.15496 
12   0.156201 
13   0.154109 
14   0.147381 
15   0.143191 
16   0.152259 
17   0.154902 
18   0.148923 
19   0.139972 
20   0.151979 
21   0.155254 
22   0.152306 
 
$$$$ 
 
