PCCDB-ID:  21711 
public computational chemistry database (PCCDB) project, http://pccdb.org 
 
 28 29  0  0  0  0  0  0  0  0999 V2000 
    0.8171   -0.1896    3.3614 C   0  0  0  0  0  0  0  0  0  0  0  0 
   -4.4688   -4.4635   -1.3318 C   0  0  0  0  0  0  0  0  0  0  0  0 
   -4.6101   -5.8248   -1.6711 C   0  0  0  0  0  0  0  0  0  0  0  0 
   -3.2273   -3.9304   -1.0093 C   0  0  0  0  0  0  0  0  0  0  0  0 
   -3.5126   -6.6778   -1.6986 C   0  0  0  0  0  0  0  0  0  0  0  0 
   -0.0397   -3.2763   -0.3258 C   0  0  0  0  0  0  0  0  0  0  0  0 
   -0.3165   -2.9256    1.1471 C   0  0  0  0  0  0  0  0  0  0  0  0 
   -0.0834   -5.7731   -0.9447 C   0  0  0  0  0  0  0  0  0  0  0  0 
   -0.6938   -4.5592   -0.7531 C   0  0  0  0  0  0  0  0  0  0  0  0 
   -2.0971   -4.7672   -1.0243 C   0  0  0  0  0  0  0  0  0  0  0  0 
   -2.2647   -6.1364   -1.3724 C   0  0  0  0  0  0  0  0  0  0  0  0 
    0.2413   -1.5723    1.5405 C   0  0  0  0  0  0  0  0  0  0  0  0 
   -1.0178   -6.7243   -1.3154 N   0  0  0  0  0  0  0  0  0  0  0  0 
    0.5452   -0.6834    0.7738 O   0  0  0  0  0  0  0  0  0  0  0  0 
    0.3460   -1.4610    2.8857 O   0  0  0  0  0  0  0  0  0  0  0  0 
    0.8340   -0.2721    4.4488 H   0  0  0  0  0  0  0  0  0  0  0  0 
    0.1437    0.6130    3.0487 H   0  0  0  0  0  0  0  0  0  0  0  0 
    1.8192    0.0174    2.9765 H   0  0  0  0  0  0  0  0  0  0  0  0 
   -5.3476   -3.8244   -1.3232 H   0  0  0  0  0  0  0  0  0  0  0  0 
   -5.5942   -6.2143   -1.9170 H   0  0  0  0  0  0  0  0  0  0  0  0 
   -3.1300   -2.8769   -0.7588 H   0  0  0  0  0  0  0  0  0  0  0  0 
   -3.6232   -7.7274   -1.9593 H   0  0  0  0  0  0  0  0  0  0  0  0 
    1.0441   -3.3401   -0.4804 H   0  0  0  0  0  0  0  0  0  0  0  0 
   -0.3811   -2.4440   -0.9523 H   0  0  0  0  0  0  0  0  0  0  0  0 
    0.0877   -3.6894    1.8200 H   0  0  0  0  0  0  0  0  0  0  0  0 
   -1.3984   -2.9053    1.3368 H   0  0  0  0  0  0  0  0  0  0  0  0 
    0.9601   -6.0412   -0.8456 H   0  0  0  0  0  0  0  0  0  0  0  0 
   -0.8167   -7.6906   -1.5181 H   0  0  0  0  0  0  0  0  0  0  0  0 
  1 16  1  0  0  0  0 
  2 19  1  0  0  0  0 
  2  4  2  0  0  0  0 
  3  2  1  0  0  0  0 
  4 21  1  0  0  0  0 
  5  3  2  0  0  0  0 
  5 11  1  0  0  0  0 
  6  7  1  0  0  0  0 
  7 26  1  0  0  0  0 
  7 12  1  0  0  0  0 
  7 25  1  0  0  0  0 
  8 27  1  0  0  0  0 
  8  9  2  0  0  0  0 
  9  6  1  0  0  0  0 
 10  4  1  0  0  0  0 
 10  9  1  0  0  0  0 
 11 13  1  0  0  0  0 
 11 10  2  0  0  0  0 
 12 15  1  0  0  0  0 
 13  8  1  0  0  0  0 
 14 12  2  0  0  0  0 
 15  1  1  0  0  0  0 
 17  1  1  0  0  0  0 
 18  1  1  0  0  0  0 
 20  3  1  0  0  0  0 
 22  5  1  0  0  0  0 
 23  6  1  0  0  0  0 
 24  6  1  0  0  0  0 
 28 13  1  0  0  0  0 
M  END 
>  <HBA> 
2 
 
>  <HBD> 
1 
 
>  <TPSA> 
42.09 
 
>  <cid> 
21711 
 
>  <dipole> 
2.85 
 
>  <excitation_energy_1> 
4.56 
 
>  <excitation_energy_2> 
4.742 
 
>  <excitation_energy_3> 
4.815 
 
>  <excitation_energy_4> 
5.044 
 
>  <homo_energy> 
-5.361 
 
>  <homo_lumo_gap> 
5.23 
 
>  <logP> 
2.273 
 
>  <lumo_energy> 
-0.131 
 
>  <melting_point> 
110.21 
 
>  <molecular_refractivity> 
58.97 
 
>  <oscillator_strength_1> 
0.0705 
 
>  <oscillator_strength_2> 
0.0015 
 
>  <oscillator_strength_3> 
0.0186 
 
>  <oscillator_strength_4> 
0.0142 
 
>  <open_babel_can_smiles> 
COC(=O)CCc1c[nH]c2c1cccc2 
 
>  <mulliken_charges> 
28 
1   -0.218068 
2   -0.140141 
3   -0.151366 
4   -0.212535 
5   -0.162837 
6   -0.345322 
7   -0.35998 
8   -0.005785 
9   0.072097 
10   0.080733 
11   0.313314 
12   0.625282 
13   -0.691089 
14   -0.480248 
15   -0.454226 
16   0.162922 
17   0.168716 
18   0.169354 
19   0.120311 
20   0.122254 
21   0.125373 
22   0.119908 
23   0.146962 
24   0.16996 
25   0.169396 
26   0.1832 
27   0.146003 
28   0.325812 
 
>  <lowdin_charges> 
28 
1   -0.277209 
2   -0.177008 
3   -0.164286 
4   -0.163746 
5   -0.185118 
6   -0.262243 
7   -0.300825 
8   -0.136801 
9   -0.061851 
10   -0.036488 
11   0.030396 
12   0.199221 
13   -0.198753 
14   -0.268101 
15   -0.197929 
16   0.157398 
17   0.159327 
18   0.15799 
19   0.155163 
20   0.155072 
21   0.154248 
22   0.153186 
23   0.152213 
24   0.164291 
25   0.168163 
26   0.172435 
27   0.16194 
28   0.289317 
 
$$$$ 
 
