PCCDB-ID:  7227 
public computational chemistry database (PCCDB) project, http://pccdb.org 
 
 20 21  0  0  0  0  0  0  0  0999 V2000 
    0.8915   -0.0516    0.0669 C   0  0  0  0  0  0  0  0  0  0  0  0 
    7.9282   -2.4434    0.0933 C   0  0  0  0  0  0  0  0  0  0  0  0 
    3.0009    1.3614    0.0722 C   0  0  0  0  0  0  0  0  0  0  0  0 
    4.3848    1.5250    0.0771 C   0  0  0  0  0  0  0  0  0  0  0  0 
    3.2118   -1.0457    0.0770 C   0  0  0  0  0  0  0  0  0  0  0  0 
    2.3976    0.0883    0.0720 C   0  0  0  0  0  0  0  0  0  0  0  0 
    6.7281   -1.5480    0.0883 C   0  0  0  0  0  0  0  0  0  0  0  0 
    4.6043   -0.9093    0.0812 C   0  0  0  0  0  0  0  0  0  0  0  0 
    5.1836    0.3824    0.0812 C   0  0  0  0  0  0  0  0  0  0  0  0 
    5.5058   -1.9669    0.0856 N   0  0  0  0  0  0  0  0  0  0  0  0 
    6.9312    0.2282    0.0861 S   0  0  0  0  0  0  0  0  0  0  0  0 
    0.3990    0.9258    0.0620 H   0  0  0  0  0  0  0  0  0  0  0  0 
    0.5374   -0.5985    0.9494 H   0  0  0  0  0  0  0  0  0  0  0  0 
    0.5439   -0.6041   -0.8147 H   0  0  0  0  0  0  0  0  0  0  0  0 
    7.5907   -3.4822    0.0960 H   0  0  0  0  0  0  0  0  0  0  0  0 
    8.5514   -2.2693    0.9782 H   0  0  0  0  0  0  0  0  0  0  0  0 
    8.5544   -2.2751   -0.7907 H   0  0  0  0  0  0  0  0  0  0  0  0 
    2.3671    2.2447    0.0681 H   0  0  0  0  0  0  0  0  0  0  0  0 
    4.8219    2.5190    0.0790 H   0  0  0  0  0  0  0  0  0  0  0  0 
    2.7835   -2.0443    0.0780 H   0  0  0  0  0  0  0  0  0  0  0  0 
  1  6  1  0  0  0  0 
  1 13  1  0  0  0  0 
  2 15  1  0  0  0  0 
  2 16  1  0  0  0  0 
  3  4  1  0  0  0  0 
  4 19  1  0  0  0  0 
  4  9  2  0  0  0  0 
  5 20  1  0  0  0  0 
  5  8  2  0  0  0  0 
  6  3  2  0  0  0  0 
  6  5  1  0  0  0  0 
  7  2  1  0  0  0  0 
  8  9  1  0  0  0  0 
  8 10  1  0  0  0  0 
  9 11  1  0  0  0  0 
 10  7  2  0  0  0  0 
 11  7  1  0  0  0  0 
 12  1  1  0  0  0  0 
 14  1  1  0  0  0  0 
 17  2  1  0  0  0  0 
 18  3  1  0  0  0  0 
M  END 
>  <HBA> 
2 
 
>  <HBD> 
0 
 
>  <TPSA> 
41.13 
 
>  <cid> 
7227 
 
>  <dipole> 
0.53 
 
>  <excitation_energy_1> 
4.563 
 
>  <excitation_energy_2> 
5.015 
 
>  <excitation_energy_3> 
5.126 
 
>  <excitation_energy_4> 
5.298 
 
>  <homo_energy> 
-6.142 
 
>  <homo_lumo_gap> 
5.355 
 
>  <logP> 
2.913 
 
>  <lumo_energy> 
-0.786 
 
>  <melting_point> 
72.06 
 
>  <molecular_refractivity> 
49.55 
 
>  <oscillator_strength_1> 
0.0227 
 
>  <oscillator_strength_2> 
0.1059 
 
>  <oscillator_strength_3> 
0.0001 
 
>  <oscillator_strength_4> 
0.0003 
 
>  <open_babel_can_smiles> 
Cc1ccc2c(c1)nc(s2)C 
 
>  <mulliken_charges> 
20 
1   -0.528904 
2   -0.515632 
3   -0.16928 
4   -0.17919 
5   -0.200753 
6   0.158935 
7   0.123428 
8   0.280658 
9   -0.128404 
10   -0.464618 
11   0.189637 
12   0.154122 
13   0.164687 
14   0.164665 
15   0.191745 
16   0.177798 
17   0.17785 
18   0.12533 
19   0.141938 
20   0.135987 
 
>  <lowdin_charges> 
20 
1   -0.442647 
2   -0.442928 
3   -0.168284 
4   -0.161694 
5   -0.16397 
6   -0.000786 
7   -0.057164 
8   0.018674 
9   -0.150265 
10   -0.161961 
11   0.237332 
12   0.156078 
13   0.162346 
14   0.162334 
15   0.179562 
16   0.172359 
17   0.172383 
18   0.157946 
19   0.164604 
20   0.166082 
 
$$$$ 
 
