PCCDB-ID:  14462 
public computational chemistry database (PCCDB) project, http://pccdb.org 
 
 29 28  0  0  1  0  0  0  0  0999 V2000 
    2.2002    2.1455    1.7795 C   0  0  0  0  0  0  0  0  0  0  0  0 
    2.4817   -0.3520    1.7175 C   0  0  0  0  0  0  0  0  0  0  0  0 
    2.9227    1.4929   -0.9945 C   0  0  0  0  0  0  0  0  0  0  0  0 
    5.1923    3.2415    0.5871 C   0  0  0  0  0  0  0  0  0  0  0  0 
    6.2996    1.0218    0.9544 C   0  0  0  0  0  0  0  0  0  0  0  0 
    5.8331    1.8043   -1.3595 C   0  0  0  0  0  0  0  0  0  0  0  0 
    3.1923    0.9978    1.5114 C   0  0  0  0  0  0  0  0  0  0  0  0 
    3.8950    1.0387    0.1111 C   0  0  2  0  0  0  0  0  0  0  0  0 
    5.2792    1.7872    0.0827 C   0  0  0  0  0  0  0  0  0  0  0  0 
    1.8437    2.0951    2.8154 H   0  0  0  0  0  0  0  0  0  0  0  0 
    1.3192    2.0779    1.1310 H   0  0  0  0  0  0  0  0  0  0  0  0 
    2.6458    3.1334    1.6321 H   0  0  0  0  0  0  0  0  0  0  0  0 
    1.9919   -0.3955    2.6979 H   0  0  0  0  0  0  0  0  0  0  0  0 
    3.1879   -1.1887    1.6578 H   0  0  0  0  0  0  0  0  0  0  0  0 
    1.7073   -0.5153    0.9569 H   0  0  0  0  0  0  0  0  0  0  0  0 
    1.9645    0.9688   -0.9055 H   0  0  0  0  0  0  0  0  0  0  0  0 
    3.3153    1.2720   -1.9910 H   0  0  0  0  0  0  0  0  0  0  0  0 
    2.7109    2.5672   -0.9507 H   0  0  0  0  0  0  0  0  0  0  0  0 
    6.1643    3.7377    0.4749 H   0  0  0  0  0  0  0  0  0  0  0  0 
    4.9222    3.2910    1.6473 H   0  0  0  0  0  0  0  0  0  0  0  0 
    4.4590    3.8284    0.0219 H   0  0  0  0  0  0  0  0  0  0  0  0 
    7.2825    1.5063    0.9064 H   0  0  0  0  0  0  0  0  0  0  0  0 
    6.4217   -0.0111    0.6049 H   0  0  0  0  0  0  0  0  0  0  0  0 
    6.0083    0.9858    2.0095 H   0  0  0  0  0  0  0  0  0  0  0  0 
    6.8611    2.1868   -1.3683 H   0  0  0  0  0  0  0  0  0  0  0  0 
    5.2418    2.4452   -2.0216 H   0  0  0  0  0  0  0  0  0  0  0  0 
    5.8519    0.7961   -1.7928 H   0  0  0  0  0  0  0  0  0  0  0  0 
    3.9709    1.0638    2.2816 H   0  0  0  0  0  0  0  0  0  0  0  0 
    4.1517   -0.0061   -0.1232 H   0  0  0  0  0  0  0  0  0  0  0  0 
  1 10  1  0  0  0  0 
  2 13  1  0  0  0  0 
  3 18  1  0  0  0  0 
  3 16  1  0  0  0  0 
  3  8  1  0  0  0  0 
  4 20  1  0  0  0  0 
  5 24  1  0  0  0  0 
  6  9  1  0  0  0  0 
  7  2  1  0  0  0  0 
  7  1  1  0  0  0  0 
  7 28  1  0  0  0  0 
  8 29  1  6  0  0  0 
  8  7  1  0  0  0  0 
  9  8  1  0  0  0  0 
  9  4  1  0  0  0  0 
  9  5  1  0  0  0  0 
 11  1  1  0  0  0  0 
 12  1  1  0  0  0  0 
 14  2  1  0  0  0  0 
 15  2  1  0  0  0  0 
 17  3  1  0  0  0  0 
 19  4  1  0  0  0  0 
 21  4  1  0  0  0  0 
 22  5  1  0  0  0  0 
 23  5  1  0  0  0  0 
 25  6  1  0  0  0  0 
 26  6  1  0  0  0  0 
 27  6  1  0  0  0  0 
M  END 
>  <HBA> 
0 
 
>  <HBD> 
0 
 
>  <TPSA> 
0.0 
 
>  <cid> 
14462 
 
>  <dipole> 
0.07 
 
>  <excitation_energy_1> 
7.29 
 
>  <excitation_energy_2> 
7.43 
 
>  <excitation_energy_3> 
7.7 
 
>  <excitation_energy_4> 
7.785 
 
>  <homo_energy> 
-7.823 
 
>  <homo_lumo_gap> 
9.772 
 
>  <logP> 
3.325 
 
>  <lumo_energy> 
1.948 
 
>  <melting_point> 
-9.87 
 
>  <molecular_refractivity> 
45.12 
 
>  <oscillator_strength_1> 
0.0369 
 
>  <oscillator_strength_2> 
0.0119 
 
>  <oscillator_strength_3> 
0.0474 
 
>  <oscillator_strength_4> 
0.0215 
 
>  <open_babel_can_smiles> 
CC([C@H](C(C)(C)C)C)C 
 
>  <mulliken_charges> 
29 
1   -0.450372 
2   -0.450406 
3   -0.470074 
4   -0.450967 
5   -0.450736 
6   -0.451496 
7   -0.080302 
8   -0.057024 
9   0.099986 
10   0.136664 
11   0.140921 
12   0.146218 
13   0.137702 
14   0.139705 
15   0.140274 
16   0.141885 
17   0.145303 
18   0.144525 
19   0.135634 
20   0.143853 
21   0.140165 
22   0.136552 
23   0.136491 
24   0.142749 
25   0.1354 
26   0.143792 
27   0.13626 
28   0.124148 
29   0.11315 
 
>  <lowdin_charges> 
29 
1   -0.448843 
2   -0.445467 
3   -0.447773 
4   -0.445754 
5   -0.442153 
6   -0.444051 
7   -0.127071 
8   -0.124709 
9   0.013952 
10   0.146235 
11   0.146821 
12   0.149425 
13   0.145974 
14   0.146561 
15   0.145122 
16   0.147802 
17   0.150151 
18   0.144972 
19   0.146648 
20   0.146689 
21   0.14742 
22   0.145967 
23   0.14434 
24   0.144874 
25   0.145011 
26   0.149896 
27   0.144657 
28   0.138599 
29   0.134705 
 
$$$$ 
 
