PCCDB-ID:  43371 
public computational chemistry database (PCCDB) project, http://pccdb.org 
 
 21 20  0  0  0  0  0  0  0  0999 V2000 
    0.9637    1.8649    0.8445 C   0  0  0  0  0  0  0  0  0  0  0  0 
   -1.7312   -0.6324   -3.2634 C   0  0  0  0  0  0  0  0  0  0  0  0 
    2.4883    0.4177   -0.6943 C   0  0  0  0  0  0  0  0  0  0  0  0 
    0.5749   -0.5717   -2.0856 C   0  0  0  0  0  0  0  0  0  0  0  0 
    1.8708    0.6689    0.6978 C   0  0  0  0  0  0  0  0  0  0  0  0 
   -0.8708   -0.0388   -2.1728 C   0  0  0  0  0  0  0  0  0  0  0  0 
    1.6921    1.4770   -2.6774 N   0  0  0  0  0  0  0  0  0  0  0  0 
    1.5455    0.4784   -1.8002 N   0  0  0  0  0  0  0  0  0  0  0  0 
    2.1554   -0.0813    1.6100 O   0  0  0  0  0  0  0  0  0  0  0  0 
   -1.2863    0.7669   -1.3650 O   0  0  0  0  0  0  0  0  0  0  0  0 
    0.8983    1.4353   -3.6151 O   0  0  0  0  0  0  0  0  0  0  0  0 
    0.0347    1.6862    0.2883 H   0  0  0  0  0  0  0  0  0  0  0  0 
    1.4245    2.7604    0.4096 H   0  0  0  0  0  0  0  0  0  0  0  0 
    0.7425    2.0293    1.9007 H   0  0  0  0  0  0  0  0  0  0  0  0 
   -1.7234   -1.7290   -3.2134 H   0  0  0  0  0  0  0  0  0  0  0  0 
   -1.3228   -0.3447   -4.2387 H   0  0  0  0  0  0  0  0  0  0  0  0 
   -2.7548   -0.2668   -3.1673 H   0  0  0  0  0  0  0  0  0  0  0  0 
    2.9921   -0.5539   -0.6709 H   0  0  0  0  0  0  0  0  0  0  0  0 
    3.2335    1.1967   -0.8937 H   0  0  0  0  0  0  0  0  0  0  0  0 
    0.8493   -1.0705   -3.0221 H   0  0  0  0  0  0  0  0  0  0  0  0 
    0.6258   -1.2998   -1.2698 H   0  0  0  0  0  0  0  0  0  0  0  0 
  1 14  1  0  0  0  0 
  2 15  1  0  0  0  0 
  2 17  1  0  0  0  0 
  2  6  1  0  0  0  0 
  3 18  1  0  0  0  0 
  3  5  1  0  0  0  0 
  4  8  1  0  0  0  0 
  4 21  1  0  0  0  0 
  5  1  1  0  0  0  0 
  5  9  2  0  0  0  0 
  6  4  1  0  0  0  0 
  6 10  2  0  0  0  0 
  7  8  1  0  0  0  0 
  8  3  1  0  0  0  0 
 11  7  1  0  0  0  0 
 12  1  1  0  0  0  0 
 13  1  1  0  0  0  0 
 16  2  1  0  0  0  0 
 19  3  1  0  0  0  0 
 20  4  1  0  0  0  0 
M  RAD  2   7   2  11   2 
M  END 
>  <HBA> 
5 
 
>  <HBD> 
0 
 
>  <TPSA> 
66.81 
 
>  <cid> 
43371 
 
>  <dipole> 
2.64 
 
>  <excitation_energy_1> 
3.446 
 
>  <excitation_energy_2> 
4.186 
 
>  <excitation_energy_3> 
4.378 
 
>  <excitation_energy_4> 
4.726 
 
>  <homo_energy> 
-6.691 
 
>  <homo_lumo_gap> 
5.181 
 
>  <logP> 
0.148 
 
>  <lumo_energy> 
-1.51 
 
>  <melting_point> 
37.91 
 
>  <molecular_refractivity> 
38.99 
 
>  <oscillator_strength_1> 
0.0008 
 
>  <oscillator_strength_2> 
0.0051 
 
>  <oscillator_strength_3> 
0.001 
 
>  <oscillator_strength_4> 
0.0164 
 
>  <open_babel_can_smiles> 
[O][N]N(CC(=O)C)CC(=O)C 
 
>  <mulliken_charges> 
21 
1   -0.555412 
2   -0.541079 
3   -0.229753 
4   -0.237981 
5   0.453096 
6   0.483741 
7   0.176549 
8   -0.209544 
9   -0.429262 
10   -0.426989 
11   -0.376275 
12   0.228207 
13   0.169477 
14   0.179484 
15   0.167514 
16   0.20044 
17   0.187214 
18   0.182831 
19   0.20033 
20   0.183456 
21   0.193955 
 
>  <lowdin_charges> 
21 
1   -0.487826 
2   -0.468564 
3   -0.234899 
4   -0.247905 
5   0.15812 
6   0.16881 
7   0.06423 
8   -0.027211 
9   -0.22389 
10   -0.227709 
11   -0.2576 
12   0.198269 
13   0.172477 
14   0.173436 
15   0.167243 
16   0.18636 
17   0.176688 
18   0.168744 
19   0.186204 
20   0.170893 
21   0.184133 
 
$$$$ 
 
