PCCDB-ID:  3
public computational chemistry database (PCCDB) project, http://pccdb.org

 19 19  0  0  1  0  0  0  0  0999 V2000
    1.0657    0.8358    0.2463 C   0  0  0  0  0  0  0  0  0  0  0  0
   -0.2923    1.3182    0.0023 C   0  0  0  0  0  0  0  0  0  0  0  0
    1.3550   -0.4791    0.2035 C   0  0  0  0  0  0  0  0  0  0  0  0
   -1.3396    0.4661   -0.0834 C   0  0  0  0  0  0  0  0  0  0  0  0
    0.2902   -1.4890   -0.1535 C   0  0  1  0  0  0  0  0  0  0  0  0
   -1.1337   -1.0073    0.1976 C   0  0  1  0  0  0  0  0  0  0  0  0
   -2.7176    0.9187   -0.3757 C   0  0  0  0  0  0  0  0  0  0  0  0
    0.4209   -1.8479   -1.5346 O   0  0  0  0  0  0  0  0  0  0  0  0
   -1.4342   -1.2858    1.5715 O   0  0  0  0  0  0  0  0  0  0  0  0
   -2.8496    2.2737   -0.3949 O   0  0  0  0  0  0  0  0  0  0  0  0
   -3.6545    0.1776   -0.5972 O   0  0  0  0  0  0  0  0  0  0  0  0
    1.8445    1.5729    0.4255 H   0  0  0  0  0  0  0  0  0  0  0  0
   -0.4485    2.3855   -0.1219 H   0  0  0  0  0  0  0  0  0  0  0  0
    2.3749   -0.8339    0.3278 H   0  0  0  0  0  0  0  0  0  0  0  0
    0.4406   -2.4224    0.3972 H   0  0  0  0  0  0  0  0  0  0  0  0
   -1.8433   -1.6048   -0.3782 H   0  0  0  0  0  0  0  0  0  0  0  0
    0.4031   -1.0240   -2.0489 H   0  0  0  0  0  0  0  0  0  0  0  0
   -0.9164   -0.6664    2.1118 H   0  0  0  0  0  0  0  0  0  0  0  0
   -3.7847    2.4403   -0.6145 H   0  0  0  0  0  0  0  0  0  0  0  0
  1 12  1  0  0  0  0
  2  1  1  0  0  0  0
  3  1  2  0  0  0  0
  3 14  1  0  0  0  0
  4  2  2  0  0  0  0
  4  6  1  0  0  0  0
  5  6  1  0  0  0  0
  5  3  1  0  0  0  0
  5 15  1  1  0  0  0
  6 16  1  6  0  0  0
  6  9  1  0  0  0  0
  7  4  1  0  0  0  0
  8  5  1  0  0  0  0
  9 18  1  0  0  0  0
 10  7  1  0  0  0  0
 11  7  2  0  0  0  0
 13  2  1  0  0  0  0
 17  8  1  0  0  0  0
 19 10  1  0  0  0  0
M  END
>  <HBA>
4

>  <HBD>
3

>  <TPSA>
77.76

>  <cid>
3

>  <dipole>
4.4

>  <excitation_energy_1>
3.854

>  <excitation_energy_2>
4.276

>  <excitation_energy_3>
4.356

>  <excitation_energy_4>
5.105

>  <homo_energy>
-6.729

>  <homo_lumo_gap>
4.528

>  <logP>
-0.711

>  <lumo_energy>
-2.201

>  <melting_point>
132.75

>  <molecular_refractivity>
36.8

>  <oscillator_strength_1>
0.0299

>  <oscillator_strength_2>
0.0188

>  <oscillator_strength_3>
0.193

>  <oscillator_strength_4>
0.0162

>  <open_babel_can_smiles>
O[C@H]1C=CC=C([C@@H]1O)C(=O)O

>  <mulliken_charges>
19
1   -0.126843
2   -0.167698
3   -0.149307
4   0.029338
5   0.071841
6   0.047905
7   0.551868
8   -0.609223
9   -0.610471
10   -0.58771
11   -0.464566
12   0.145904
13   0.172716
14   0.1539
15   0.163632
16   0.18275
17   0.393281
18   0.390155
19   0.41253

>  <lowdin_charges>
19
1   -0.177586
2   -0.130328
3   -0.157261
4   -0.072111
5   -0.018634
6   -0.014572
7   0.195218
8   -0.447473
9   -0.449084
10   -0.368315
11   -0.262187
12   0.166273
13   0.176094
14   0.167126
15   0.164229
16   0.176665
17   0.345174
18   0.344452
19   0.362319

$$$$

